2024_89_CemigReconfigurationCases/1_SEsCemig/SRS02/SRS02SegmentosMT.dss
new line.SMT_1208963 bus1=BMT162857859.2,bus2=BMT162857860.2,Phases=1,Linecode=CAB202_3_1_1,Length=0.094373000,Units=km
new line.SMT_1208970 bus1=BMT125561265.2,bus2=BMT3321080B.2,Phases=1,Linecode=CAB202_3_1_1,Length=0.154407000,Units=km
new line.SMT_1208977 bus1=BMT162857860.2,bus2=BMT162857861.2,Phases=1,Linecode=CAB202_3_1_1,Length=0.047187000,Units=km
new line.SMT_1208984 bus1=BMT162857860.2,bus2=BMT3319757B.2,Phases=1,Linecode=CAB202_3_1_1,Length=0.099679000,Units=km
new line.SMT_1208991 bus1=BMT162857860.2,bus2=BMT3319813B.2,Phases=1,Linecode=CAB202_3_1_1,Length=0.014872000,Units=km
new line.SMT_1208998 bus1=BMT162857862.2,bus2=BMT162857864.2,Phases=1,Linecode=CAB202_3_1_1,Length=0.336122000,Units=km
new line.SMT_1209005 bus1=BMT162857862.2,bus2=BMT3319673B.2,Phases=1,Linecode=CAB202_3_1_1,Length=0.141559000,Units=km
new line.SMT_1209012 bus1=BMT162857866.2,bus2=BMT162857868.2,Phases=1,Linecode=CAB103_3_1_1,Length=0.065788000,Units=km
new line.SMT_1209019 bus1=BMT162857866.2,bus2=BMT3319610B.2,Phases=1,Linecode=CAB202_3_1_1,Length=0.064373000,Units=km
new line.SMT_1209026 bus1=BMT162857869.2,bus2=BMT125561391.2,Phases=1,Linecode=CAB202_3_1_1,Length=0.064645000,Units=km
new line.SMT_1209033 bus1=BMT162857869.2,bus2=BMT155011562.2,Phases=1,Linecode=CAB202_3_1_1,Length=0.066777000,Units=km
new line.SMT_1209040 bus1=BMT125561461.2,bus2=BMT125561468.2,Phases=1,Linecode=CAB202_3_1_1,Length=0.057029000,Units=km
new line.SMT_1209047 bus1=BMT125561461.2,bus2=BMT125561475.2,Phases=1,Linecode=CAB202_3_1_1,Length=0.326073000,Units=km
new line.SMT_1209054 bus1=BMT158588049.2,bus2=BMT158588050.2,Phases=1,Linecode=CAB202_3_1_1,Length=0.132900000,Units=km
new line.SMT_1209061 bus1=BMT125561398.2,bus2=BMT3318273B.2,Phases=1,Linecode=CAB202_3_1_1,Length=0.095223000,Units=km
new line.SMT_1209068 bus1=BMT158588050.2,bus2=BMT158588051.2,Phases=1,Linecode=CAB202_3_1_1,Length=0.092228000,Units=km
new line.SMT_1209075 bus1=BMT158588050.2,bus2=BMT158588052.2,Phases=1,Linecode=CAB202_3_1_1,Length=0.065215000,Units=km
new line.SMT_1209082 bus1=BMT158588050.2,bus2=BMT158588053.2,Phases=1,Linecode=CAB202_3_1_1,Length=0.397535000,Units=km
new line.SMT_1209089 bus1=BMT178405484.2,bus2=BMT178405485.2,Phases=1,Linecode=CAB202_3_1_1,Length=0.100035000,Units=km
new line.SMT_1209096 bus1=BMT178405484.2,bus2=BMT178405486.2,Phases=1,Linecode=CAB202_3_1_1,Length=0.050822000,Units=km
new line.SMT_1209103 bus1=BMT178405489.2,bus2=BMT155011523.2,Phases=1,Linecode=CAB202_3_1_1,Length=0.252328000,Units=km
new line.SMT_1209110 bus1=BMT178405489.2,bus2=BMT3315193B.2,Phases=1,Linecode=CAB202_3_1_1,Length=0.008250000,Units=km
new line.SMT_1209117 bus1=BMT173058688.2,bus2=BMT2583840B.2,Phases=1,Linecode=CAB202_3_1_1,Length=0.142573000,Units=km
new line.SMT_1209124 bus1=BMT2126068B.2,bus2=BMT3315144B.2,Phases=1,Linecode=CAB202_3_1_1,Length=0.265799000,Units=km
new line.SMT_1209131 bus1=BMT173058689.2,bus2=BMT173058690.2,Phases=1,Linecode=CAB202_3_1_1,Length=0.079085000,Units=km
new line.SMT_1209138 bus1=BMT173058689.2,bus2=BMT3315081B.2,Phases=1,Linecode=CAB202_3_1_1,Length=0.044737000,Units=km
new line.SMT_1209145 bus1=BMT173058690.2,bus2=BMT173058693.2,Phases=1,Linecode=CAB103_3_1_1,Length=0.065788000,Units=km
new line.SMT_1209152 bus1=BMT173058690.2,bus2=BMT173058694.2,Phases=1,Linecode=CAB202_3_1_1,Length=0.158551000,Units=km
new line.SMT_1209159 bus1=BMT158588052.2,bus2=BMT158588075.2,Phases=1,Linecode=CAB202_3_1_1,Length=0.132144000,Units=km
new line.SMT_1209166 bus1=BMT158588052.2,bus2=BMT3318399B.2,Phases=1,Linecode=CAB202_3_1_1,Length=0.007074000,Units=km
new line.SMT_1209173 bus1=BMT158588053.2,bus2=BMT158588054.2,Phases=1,Linecode=CAB102_3_1_1,Length=0.052220000,Units=km
new line.SMT_1209187 bus1=BMT158588053.2,bus2=BMT3318462B.2,Phases=1,Linecode=CAB202_3_1_1,Length=0.058330000,Units=km
new line.SMT_1209194 bus1=BMT158588057.2,bus2=BMT158588059.2,Phases=1,Linecode=CAB202_3_1_1,Length=0.061054000,Units=km
new line.SMT_1209201 bus1=BMT158588057.2,bus2=BMT2739842B.2,Phases=1,Linecode=CAB202_3_1_1,Length=0.039065000,Units=km
new line.SMT_1209208 bus1=BMT158588061.2,bus2=BMT158588062.2,Phases=1,Linecode=CAB202_3_1_1,Length=0.107741000,Units=km
new line.SMT_1209215 bus1=BMT158588061.2,bus2=BMT2126117B.2,Phases=1,Linecode=CAB202_3_1_1,Length=0.122108000,Units=km
new line.SMT_1209222 bus1=BMT2126117B.2,bus2=BMT2126124B.2,Phases=1,Linecode=CAB202_3_1_1,Length=0.134676000,Units=km
new line.SMT_1209229 bus1=BMT2126124B.2,bus2=BMT158588063.2,Phases=1,Linecode=CAB202_3_1_1,Length=0.095558000,Units=km
new line.SMT_1209236 bus1=BMT158588063.2,bus2=BMT158588064.2,Phases=1,Linecode=CAB202_3_1_1,Length=0.110038000,Units=km
new line.SMT_1209243 bus1=BMT158588063.2,bus2=BMT3312897B.2,Phases=1,Linecode=CAB202_3_1_1,Length=0.143228000,Units=km
new line.SMT_1209250 bus1=BMT158588065.2,bus2=BMT158588066.2,Phases=1,Linecode=CAB202_3_1_1,Length=0.078213000,Units=km
new line.SMT_1209257 bus1=BMT158588065.2,bus2=BMT3312960B.2,Phases=1,Linecode=CAB202_3_1_1,Length=0.269585000,Units=km
new line.SMT_1209264 bus1=BMT158588067.2,bus2=BMT158588068.2,Phases=1,Linecode=CAB202_3_1_1,Length=0.116014000,Units=km
new line.SMT_1209271 bus1=BMT158588067.2,bus2=BMT3313023B.2,Phases=1,Linecode=CAB202_3_1_1,Length=0.070735000,Units=km
new line.SMT_1209278 bus1=BMT2126152B.2,bus2=BMT158588069.2,Phases=1,Linecode=CAB202_3_1_1,Length=0.133463000,Units=km
new line.SMT_1209285 bus1=BMT2126159B.2,bus2=BMT3313135B.2,Phases=1,Linecode=CAB103_3_1_1,Length=0.127323000,Units=km
new line.SMT_1141714 bus1=BMT125555042.3,bus2=BMT125555049.3,Phases=1,Linecode=CAB202_3_1_1,Length=0.141531000,Units=km
new line.SMT_1141721 bus1=BMT125555042.1.2.3,bus2=BMT3321430B.1.2.3,Phases=3,Linecode=CAB204_3_3_3,Length=0.102613000,Units=km
new line.SMT_1141728 bus1=BMT125560950.3,bus2=BMT125560957.3,Phases=1,Linecode=CAB202_3_1_1,Length=0.119549000,Units=km
new line.SMT_1141735 bus1=BMT125555077.3,bus2=BMT2085447B.3,Phases=1,Linecode=CAB202_3_1_1,Length=0.277449000,Units=km
new line.SMT_1141742 bus1=BMT182568712.2,bus2=BMT182568713.2,Phases=1,Linecode=CAB103_3_1_1,Length=0.055921000,Units=km
new line.SMT_1141749 bus1=BMT182568712.1.2.3,bus2=BMT2085300B.1.2.3,Phases=3,Linecode=CAB204_3_3_3,Length=0.116942000,Units=km
new line.SMT_1141756 bus1=BMT2085300B.1.2.3,bus2=BMT2085307B.1.2.3,Phases=3,Linecode=CAB204_3_3_3,Length=0.110206000,Units=km
new line.SMT_1141763 bus1=BMT2085307B.1.2.3,bus2=BMT125555070.1.2.3,Phases=3,Linecode=CAB204_3_3_3,Length=0.162691000,Units=km
new line.SMT_1141770 bus1=BMT159915806.1.2.3,bus2=BMT2085321B.1.2.3,Phases=3,Linecode=CAB204_3_3_3,Length=0.114276000,Units=km
new line.SMT_1141777 bus1=BMT2085321B.1.2.3,bus2=BMT159915807.1.2.3,Phases=3,Linecode=CAB204_3_3_3,Length=0.096600000,Units=km
new line.SMT_1141784 bus1=BMT159915807.3,bus2=BMT3321766B.3,Phases=1,Linecode=CAB202_3_1_1,Length=0.098269000,Units=km
new line.SMT_1141791 bus1=BMT159915807.1.2.3,bus2=BMT3322004B.1.2.3,Phases=3,Linecode=CAB204_3_3_3,Length=0.105156000,Units=km
new line.SMT_1141798 bus1=BMT159915810.1.2.3,bus2=BMT159915811.1.2.3,Phases=3,Linecode=CAB102_3_3_3,Length=0.026936000,Units=km
new line.SMT_1141805 bus1=BMT159915810.1.2.3,bus2=BMT159915812.1.2.3,Phases=3,Linecode=CAB204_3_3_3,Length=0.349206000,Units=km
new line.SMT_1141812 bus1=BMT159915810.1.2.3,bus2=BMT3322165B.1.2.3,Phases=3,Linecode=CAB204_3_3_3,Length=0.008066000,Units=km
new line.SMT_1141819 bus1=BMT153230123.1.2.3,bus2=BMT125555175.1.2.3,Phases=3,Linecode=CAB204_3_3_3,Length=0.136125000,Units=km
new line.SMT_1141826 bus1=BMT179981967.3,bus2=BMT3322277B.3,Phases=1,Linecode=CAB202_3_1_1,Length=0.144418000,Units=km
new line.SMT_1141833 bus1=BMT125560922.1.2.3,bus2=BMT3323278B.1.2.3,Phases=3,Linecode=CAB204_3_3_3,Length=0.096553000,Units=km
new line.SMT_1141840 bus1=BMT125555175.1.2.3,bus2=BMT3323355B.1.2.3,Phases=3,Linecode=CAB204_3_3_3,Length=0.093441000,Units=km
new line.SMT_1141847 bus1=BMT125560929.1.2.3,bus2=BMT125560936.1.2.3,Phases=3,Linecode=CAB102_3_3_3,Length=0.028295000,Units=km
new line.SMT_1141854 bus1=BMT125560929.1.2.3,bus2=BMT2085433B.1.2.3,Phases=3,Linecode=CAB202_3_3_3,Length=0.098269000,Units=km
new line.SMT_1141861 bus1=BMT2085363B.1.2.3,bus2=BMT3337096B.1.2.3,Phases=3,Linecode=CAB204_3_3_3,Length=0.096802000,Units=km
new line.SMT_1141868 bus1=BMT152584766.1.2.3,bus2=BMT2085377B.1.2.3,Phases=3,Linecode=CAB202_3_3_3,Length=0.055922000,Units=km
new line.SMT_1141875 bus1=BMT125555189.1.2.3,bus2=BMT125555196.1.2.3,Phases=3,Linecode=CAB204_3_3_3,Length=0.109240000,Units=km
new line.SMT_1141882 bus1=BMT2085377B.1.2.3,bus2=BMT2085391B.1.2.3,Phases=3,Linecode=CAB202_3_3_3,Length=0.079085000,Units=km
new line.SMT_1141889 bus1=BMT2085391B.1.2.3,bus2=BMT3336963B.1.2.3,Phases=3,Linecode=CAB202_3_3_3,Length=0.085177000,Units=km
new line.SMT_1141896 bus1=BMT152584767.1.2.3,bus2=BMT152584768.1.2.3,Phases=3,Linecode=CAB202_3_3_3,Length=0.022369000,Units=km
new line.SMT_1141903 bus1=BMT152584767.1.2.3,bus2=BMT152584769.1.2.3,Phases=3,Linecode=CAB202_3_3_3,Length=0.078290000,Units=km
new line.SMT_1141910 bus1=BMT152584769.1.2.3,bus2=BMT2819635B.1.2.3,Phases=3,Linecode=CAB202_3_3_3,Length=0.105156000,Units=km
new line.SMT_1141917 bus1=BMT152584771.1.2.3,bus2=BMT3336879B.1.2.3,Phases=3,Linecode=CAB202_3_3_3,Length=0.078265000,Units=km
new line.SMT_1141924 bus1=BMT152584773.3,bus2=BMT152584774.3,Phases=1,Linecode=CAB103_3_1_1,Length=0.067292000,Units=km
new line.SMT_1141931 bus1=BMT152584773.3,bus2=BMT152584775.3,Phases=1,Linecode=CAB202_3_1_1,Length=0.084883000,Units=km
new line.SMT_1141938 bus1=BMT152584773.3,bus2=BMT3336774B.3,Phases=1,Linecode=CAB202_3_1_1,Length=0.010821000,Units=km
new line.SMT_1141945 bus1=BMT152584775.3,bus2=BMT152584777.3,Phases=1,Linecode=CAB202_3_1_1,Length=0.179577000,Units=km
new line.SMT_1141952 bus1=BMT152584775.3,bus2=BMT3336655B.3,Phases=1,Linecode=CAB202_3_1_1,Length=0.125044000,Units=km
new line.SMT_1141959 bus1=BMT152584778.3,bus2=BMT152584779.3,Phases=1,Linecode=CAB103_3_1_1,Length=0.035368000,Units=km
new line.SMT_1141966 bus1=BMT152584778.3,bus2=BMT152584780.3,Phases=1,Linecode=CAB202_3_1_1,Length=0.277406000,Units=km
new line.SMT_1141973 bus1=BMT152584778.3,bus2=BMT3983658B.3,Phases=1,Linecode=CAB202_3_1_1,Length=0.110407000,Units=km
new line.SMT_1141980 bus1=BMT2085433B.1.2.3,bus2=BMT125560943.1.2.3,Phases=3,Linecode=CAB202_3_3_3,Length=0.294467000,Units=km
new line.SMT_1141987 bus1=BMT125560971.3,bus2=BMT3299331B.3,Phases=1,Linecode=CAB204_3_1_1,Length=0.175338000,Units=km
new line.SMT_1141994 bus1=BMT2085447B.3,bus2=BMT3321353B.3,Phases=1,Linecode=CAB202_3_1_1,Length=0.129080000,Units=km
new line.SMT_1142001 bus1=BMT125555098.3,bus2=BMT125555105.3,Phases=1,Linecode=CAB103_3_1_1,Length=0.056588000,Units=km
new line.SMT_12126193 bus1=BMT166719962.2,bus2=BMT166719963.2,Phases=1,Linecode=CAB103_3_1_1,Length=0.032399000,Units=km
new line.SMT_12126344 bus1=BMT175199549.1.2.3,bus2=BMT8719339B.1.2.3,Phases=3,Linecode=CABA06_3_3_3,Length=0.019216000,Units=km
new line.SMT_12126345 bus1=BMT1084538B.1.2.3,bus2=BMT8719339B.1.2.3,Phases=3,Linecode=CABA06_3_3_3,Length=0.014871000,Units=km
new line.SMT_12126849 bus1=BMT173868696.1.2.3,bus2=BMT173868697.1.2.3,Phases=3,Linecode=CAB103_3_3_3,Length=0.017499000,Units=km
new line.SMT_12166648 bus1=BMT150080255.3,bus2=BMT8764248B.3,Phases=1,Linecode=CABA06_3_1_1,Length=0.030011000,Units=km
new line.SMT_12166649 bus1=BMT8764248B.3,bus2=BMT686518B.3,Phases=1,Linecode=CABA06_3_1_1,Length=0.029625000,Units=km
new line.SMT_12166650 bus1=BMT686518B.3,bus2=BMT8764249B.3,Phases=1,Linecode=CABA06_3_1_1,Length=0.028646000,Units=km
new line.SMT_12166651 bus1=BMT8764249B.3,bus2=BMT150080256.3,Phases=1,Linecode=CABA06_3_1_1,Length=0.028873000,Units=km
new line.SMT_12166652 bus1=BMT150080255.3,bus2=BMT8764252B.3,Phases=1,Linecode=CABA06_3_1_1,Length=0.034668000,Units=km
new line.SMT_12166653 bus1=BMT8764252B.3,bus2=BMT686511B.3,Phases=1,Linecode=CABA06_3_1_1,Length=0.035397000,Units=km
new line.SMT_12166654 bus1=BMT686511B.3,bus2=BMT8764253B.3,Phases=1,Linecode=CABA06_3_1_1,Length=0.034422000,Units=km
new line.SMT_12166655 bus1=BMT8764253B.3,bus2=BMT686553B.3,Phases=1,Linecode=CABA06_3_1_1,Length=0.035013000,Units=km
new line.SMT_12166656 bus1=BMT686553B.3,bus2=BMT8764254B.3,Phases=1,Linecode=CABA06_3_1_1,Length=0.032570000,Units=km
new line.SMT_12166657 bus1=BMT8764254B.3,bus2=BMT686560B.3,Phases=1,Linecode=CABA06_3_1_1,Length=0.034841000,Units=km
new line.SMT_12166658 bus1=BMT686560B.3,bus2=BMT8764255B.3,Phases=1,Linecode=CABA06_3_1_1,Length=0.029743000,Units=km
new line.SMT_12166659 bus1=BMT8764255B.3,bus2=BMT150080257.3,Phases=1,Linecode=CABA06_3_1_1,Length=0.030491000,Units=km
new line.SMT_12166896 bus1=BMT161417878.1.2.3,bus2=BMT718725B.1.2.3,Phases=3,Linecode=CABA06_3_3_3,Length=0.027741000,Units=km
new line.SMT_12166898 bus1=BMT718725B.1.2.3,bus2=BMT718732B.1.2.3,Phases=3,Linecode=CABA06_3_3_3,Length=0.034899000,Units=km
new line.SMT_12166899 bus1=BMT718732B.1.2.3,bus2=BMT718739B.1.2.3,Phases=3,Linecode=CABA06_3_3_3,Length=0.031777000,Units=km
new line.SMT_12166903 bus1=BMT718739B.1.2.3,bus2=BMT718746B.1.2.3,Phases=3,Linecode=CABA06_3_3_3,Length=0.036688000,Units=km
new line.SMT_12166909 bus1=BMT8764567B.1.2.3,bus2=BMT161417879.1.2.3,Phases=3,Linecode=CABA06_3_3_3,Length=0.040326000,Units=km
new line.SMT_12166918 bus1=BMT718746B.1.2.3,bus2=BMT8764582B.1.2.3,Phases=3,Linecode=CABA06_3_3_3,Length=0.039827000,Units=km
new line.SMT_12166919 bus1=BMT8764567B.1.2.3,bus2=BMT8764582B.1.2.3,Phases=3,Linecode=CABA06_3_3_3,Length=0.039827000,Units=km
new line.SMT_1218700 bus1=BMT167463937.2,bus2=BMT167463938.2,Phases=1,Linecode=CAB202_3_1_1,Length=0.173837000,Units=km
new line.SMT_1218707 bus1=BMT167463937.2,bus2=BMT167463939.2,Phases=1,Linecode=CAB202_3_1_1,Length=0.236318000,Units=km
new line.SMT_12187116 bus1=BMT169893239.1.2.3,bus2=BMT8787208B.1.2.3,Phases=3,Linecode=CAB104_3_3_3,Length=0.004245000,Units=km
new line.SMT_12187117 bus1=BMT8787208B.1.2.3,bus2=BMT169893242.1.2.3,Phases=3,Linecode=CAB104_3_3_3,Length=0.038197000,Units=km
new line.SMT_12187120 bus1=BMT181803529.1.2.3,bus2=BMT3965535B.1.2.3,Phases=3,Linecode=CABA06_3_3_3,Length=0.024848000,Units=km
new line.SMT_12187121 bus1=BMT3965535B.1.2.3,bus2=BMT3965542B.1.2.3,Phases=3,Linecode=CABA06_3_3_3,Length=0.034071000,Units=km
new line.SMT_12187122 bus1=BMT3965542B.1.2.3,bus2=BMT3965549B.1.2.3,Phases=3,Linecode=CABA06_3_3_3,Length=0.019242000,Units=km
new line.SMT_12187123 bus1=BMT3965549B.1.2.3,bus2=BMT181803531.1.2.3,Phases=3,Linecode=CABA06_3_3_3,Length=0.037815000,Units=km
new line.SMT_1218714 bus1=BMT173051121.2,bus2=BMT173051124.2,Phases=1,Linecode=CAB202_3_1_1,Length=0.621149000,Units=km
new line.SMT_1218721 bus1=BMT173051121.2,bus2=BMT173051125.2,Phases=1,Linecode=CAB103_3_1_1,Length=0.041247000,Units=km
new line.SMT_1218728 bus1=BMT173051121.2,bus2=BMT173051126.2,Phases=1,Linecode=CAB202_3_1_1,Length=0.127860000,Units=km
new line.SMT_1218735 bus1=BMT2131934B.2,bus2=BMT173051127.2,Phases=1,Linecode=CAB202_3_1_1,Length=0.040808000,Units=km
new line.SMT_1218742 bus1=BMT173051124.2,bus2=BMT173051137.2,Phases=1,Linecode=CAB202_3_1_1,Length=0.220138000,Units=km
new line.SMT_1218749 bus1=BMT173051124.2,bus2=BMT3337957B.2,Phases=1,Linecode=CAB202_3_1_1,Length=0.052973000,Units=km
new line.SMT_1218756 bus1=BMT173051138.2,bus2=BMT173051139.2,Phases=1,Linecode=CAB103_3_1_1,Length=0.055591000,Units=km
new line.SMT_1218763 bus1=BMT173051138.2,bus2=BMT2131955B.2,Phases=1,Linecode=CAB202_3_1_1,Length=0.085032000,Units=km
new line.SMT_1218770 bus1=BMT2131955B.2,bus2=BMT173051140.2,Phases=1,Linecode=CAB202_3_1_1,Length=0.119057000,Units=km
new line.SMT_1218777 bus1=BMT2131962B.2,bus2=BMT2131969B.2,Phases=1,Linecode=CAB202_3_1_1,Length=0.059931000,Units=km
new line.SMT_1218784 bus1=BMT2131969B.2,bus2=BMT173051128.2,Phases=1,Linecode=CAB202_3_1_1,Length=0.035369000,Units=km
new line.SMT_1218791 bus1=BMT2131976B.2,bus2=BMT173051131.2,Phases=1,Linecode=CAB202_3_1_1,Length=0.078061000,Units=km
new line.SMT_1218798 bus1=BMT173051131.2,bus2=BMT173051132.2,Phases=1,Linecode=CAB103_3_1_1,Length=0.064685000,Units=km
new line.SMT_1218805 bus1=BMT173051131.2,bus2=BMT2975581B.2,Phases=1,Linecode=CAB202_3_1_1,Length=0.111845000,Units=km
new line.SMT_1218812 bus1=BMT167463939.2,bus2=BMT167463940.2,Phases=1,Linecode=CAB103_3_1_1,Length=0.031965000,Units=km
new line.SMT_1218819 bus1=BMT167463939.2,bus2=BMT3491502B.2,Phases=1,Linecode=CAB202_3_1_1,Length=0.180577000,Units=km
new line.SMT_1218826 bus1=BMT2131997B.2,bus2=BMT726516B.2,Phases=1,Linecode=CAB202_3_1_1,Length=0.075692000,Units=km
new line.SMT_1218833 bus1=BMT167463943.2,bus2=BMT167463945.2,Phases=1,Linecode=CAB103_3_1_1,Length=0.033389000,Units=km
new line.SMT_12126851 bus1=BMT692216B.2,bus2=BMT692223B.2,Phases=1,Linecode=CABA06_3_1_1,Length=0.032462000,Units=km
new line.SMT_12126852 bus1=BMT692223B.2,bus2=BMT148735576.2,Phases=1,Linecode=CABA06_3_1_1,Length=0.031918000,Units=km
new line.SMT_12126871 bus1=BMT148735575.2,bus2=BMT692167B.2,Phases=1,Linecode=CABA06_3_1_1,Length=0.014323000,Units=km
new line.SMT_12126872 bus1=BMT692167B.2,bus2=BMT148735577.2,Phases=1,Linecode=CABA06_3_1_1,Length=0.025009000,Units=km
new line.SMT_12130573 bus1=BMT169893111.1.2.3,bus2=BMT8724295B.1.2.3,Phases=3,Linecode=CABA06_3_3_3,Length=0.042594000,Units=km
new line.SMT_12130574 bus1=BMT8724295B.1.2.3,bus2=BMT8724310B.1.2.3,Phases=3,Linecode=CABA06_3_3_3,Length=0.039637000,Units=km
new line.SMT_12130577 bus1=BMT8724310B.1.2.3,bus2=BMT8724311B.1.2.3,Phases=3,Linecode=CABA06_3_3_3,Length=0.026315000,Units=km
new line.SMT_12130588 bus1=BMT8724311B.1.2.3,bus2=BMT8724314B.1.2.3,Phases=3,Linecode=CABA06_3_3_3,Length=0.027028000,Units=km
new line.SMT_12130595 bus1=BMT8724314B.1.2.3,bus2=BMT8724316B.1.2.3,Phases=3,Linecode=CABA06_3_3_3,Length=0.005002000,Units=km
new line.SMT_12130596 bus1=BMT8724316B.1.2.3,bus2=BMT8724324B.1.2.3,Phases=3,Linecode=CABA06_3_3_3,Length=0.037603000,Units=km
new line.SMT_12130597 bus1=BMT8724324B.1.2.3,bus2=BMT169893112.1.2.3,Phases=3,Linecode=CABA06_3_3_3,Length=0.039231000,Units=km
new line.SMT_12160646 bus1=BMT176250793.2,bus2=BMT8757311B.2,Phases=1,Linecode=CAB202_3_1_1,Length=0.055921000,Units=km
new line.SMT_12160659 bus1=BMT176250793.2,bus2=BMT176250795.2,Phases=1,Linecode=CAB202_3_1_1,Length=0.037496000,Units=km
new line.SMT_12160662 bus1=BMT8757311B.2,bus2=BMT176250794.2,Phases=1,Linecode=CAB202_3_1_1,Length=0.050614000,Units=km
new line.SMT_12160669 bus1=BMT2247035B.1.2.3,bus2=BMT8757409B.1.2.3,Phases=3,Linecode=CABA08_3_3_3,Length=0.033253000,Units=km
new line.SMT_12160670 bus1=BMT4087832B.1.2.3,bus2=BMT8757409B.1.2.3,Phases=3,Linecode=CABA08_3_3_3,Length=0.029165000,Units=km
new line.SMT_12161613 bus1=BMT149908129.3,bus2=BMT149908092.3,Phases=1,Linecode=CAB202_3_1_1,Length=0.001001000,Units=km
new line.SMT_12161614 bus1=BMT2133614B.3,bus2=BMT149908132.3,Phases=1,Linecode=CAB202_3_1_1,Length=0.324113000,Units=km
new line.SMT_12162837 bus1=BMT166721196.3,bus2=BMT8754874B.3,Phases=1,Linecode=CABA06_3_1_1,Length=0.033026000,Units=km
new line.SMT_12162839 bus1=BMT8754874B.3,bus2=BMT8754878B.3,Phases=1,Linecode=CABA06_3_1_1,Length=0.026485000,Units=km
new line.SMT_12162841 bus1=BMT8754878B.3,bus2=BMT166721198.3,Phases=1,Linecode=CABA06_3_1_1,Length=0.033627000,Units=km
new line.SMT_12163178 bus1=BMT172856323.1.2.3,bus2=BMT8760012B.1.2.3,Phases=3,Linecode=CABA06_3_3_3,Length=0.040325000,Units=km
new line.SMT_12163179 bus1=BMT8760012B.1.2.3,bus2=BMT8760013B.1.2.3,Phases=3,Linecode=CABA06_3_3_3,Length=0.034493000,Units=km
new line.SMT_12163180 bus1=BMT8760013B.1.2.3,bus2=BMT172856324.1.2.3,Phases=3,Linecode=CABA06_3_3_3,Length=0.034897000,Units=km
new line.SMT_1219197 bus1=BMT139478637.1.2.3,bus2=BMT3342493B.1.2.3,Phases=3,Linecode=CAB202_3_3_3,Length=0.009853000,Units=km
new line.SMT_1219204 bus1=BMT125556246.1,bus2=BMT177795043.1,Phases=1,Linecode=CAB202_3_1_1,Length=0.037350000,Units=km
new line.SMT_1219211 bus1=BMT174012984.1.2.3,bus2=BMT2132438B.1.2.3,Phases=3,Linecode=CAB202_3_3_3,Length=0.279534000,Units=km
new line.SMT_1219218 bus1=BMT157102881.2,bus2=BMT157102882.2,Phases=1,Linecode=CAB202_3_1_1,Length=0.221009000,Units=km
new line.SMT_1219225 bus1=BMT157102881.2,bus2=BMT157102883.2,Phases=1,Linecode=CAB202_3_1_1,Length=0.050029000,Units=km
new line.SMT_1219232 bus1=BMT157102884.2,bus2=BMT157102885.2,Phases=1,Linecode=CAB103_3_1_1,Length=0.080030000,Units=km
new line.SMT_1219239 bus1=BMT157102884.2,bus2=BMT157102886.2,Phases=1,Linecode=CAB202_3_1_1,Length=0.075028000,Units=km
new line.SMT_1219246 bus1=BMT157102889.2,bus2=BMT157102891.2,Phases=1,Linecode=CAB202_3_1_1,Length=0.108040000,Units=km
new line.SMT_1219253 bus1=BMT157102889.2,bus2=BMT157102892.2,Phases=1,Linecode=CAB202_3_1_1,Length=0.307764000,Units=km
new line.SMT_1219260 bus1=BMT157102892.2,bus2=BMT3363010B.2,Phases=1,Linecode=CAB202_3_1_1,Length=0.162260000,Units=km
new line.SMT_1219267 bus1=BMT157102892.2,bus2=BMT3363073B.2,Phases=1,Linecode=CAB202_3_1_1,Length=0.315661000,Units=km
new line.SMT_1219274 bus1=BMT157102894.2,bus2=BMT157102895.2,Phases=1,Linecode=CAB202_3_1_1,Length=0.135050000,Units=km
new line.SMT_1219281 bus1=BMT157102894.2,bus2=BMT157102896.2,Phases=1,Linecode=CAB202_3_1_1,Length=0.299152000,Units=km
new line.SMT_1219288 bus1=BMT157102896.2,bus2=BMT157102897.2,Phases=1,Linecode=CAB202_3_1_1,Length=0.249110000,Units=km
new line.SMT_1219295 bus1=BMT157102896.2,bus2=BMT157102898.2,Phases=1,Linecode=CAB202_3_1_1,Length=0.128846000,Units=km
new line.SMT_1219302 bus1=BMT157102896.2,bus2=BMT125557093.2,Phases=1,Linecode=CAB202_3_1_1,Length=0.385311000,Units=km
new line.SMT_1219309 bus1=BMT125557100.2,bus2=BMT125557107.2,Phases=1,Linecode=CAB202_3_1_1,Length=0.051807000,Units=km
new line.SMT_1219316 bus1=BMT125557422.2,bus2=BMT125557429.2,Phases=1,Linecode=CAB202_3_1_1,Length=0.048392000,Units=km
new line.SMT_1219323 bus1=BMT125557107.2,bus2=BMT2132284B.2,Phases=1,Linecode=CAB202_3_1_1,Length=0.069897000,Units=km
new line.SMT_1219330 bus1=BMT2132284B.2,bus2=BMT125557114.2,Phases=1,Linecode=CAB202_3_1_1,Length=0.050019000,Units=km
new line.SMT_1219337 bus1=BMT2132291B.2,bus2=BMT3363521B.2,Phases=1,Linecode=CAB102_3_1_1,Length=0.055383000,Units=km
new line.SMT_1219344 bus1=BMT125557485.2,bus2=BMT125557513.2,Phases=1,Linecode=CAB202_3_1_1,Length=0.130432000,Units=km
new line.SMT_12113104 bus1=BMT3261307B.1.2.3,bus2=BMT169056876.1.2.3,Phases=3,Linecode=CAB202_3_3_3,Length=0.093035000,Units=km
new line.SMT_12113113 bus1=BMT169056878.3,bus2=BMT169056880.3,Phases=1,Linecode=CAB202_3_1_1,Length=0.213844000,Units=km
new line.SMT_12113128 bus1=BMT3261188B.1.2.3,bus2=BMT8705738B.1.2.3,Phases=3,Linecode=CAB202_3_3_3,Length=0.087028000,Units=km
new line.SMT_12113129 bus1=BMT8705738B.1.2.3,bus2=BMT3261181B.1.2.3,Phases=3,Linecode=CAB202_3_3_3,Length=0.083513000,Units=km
new line.SMT_12113147 bus1=BMT169056884.3,bus2=BMT169056886.3,Phases=1,Linecode=CAB103_3_1_1,Length=0.007813000,Units=km
new line.SMT_12113199 bus1=BMT177703069.1.2.3,bus2=BMT8705822B.1.2.3,Phases=3,Linecode=CAB202_3_3_3,Length=0.332287000,Units=km
new line.SMT_12113200 bus1=BMT8705822B.1.2.3,bus2=BMT177703070.1.2.3,Phases=3,Linecode=CAB202_3_3_3,Length=0.102916000,Units=km
new line.SMT_12113202 bus1=BMT177703070.1.2.3,bus2=BMT8705818B.1.2.3,Phases=3,Linecode=CAB202_3_3_3,Length=0.124671000,Units=km
new line.SMT_12113203 bus1=BMT8705818B.1.2.3,bus2=BMT8705806B.1.2.3,Phases=3,Linecode=CAB202_3_3_3,Length=0.191267000,Units=km
new line.SMT_12113204 bus1=BMT8705806B.1.2.3,bus2=BMT8705800B.1.2.3,Phases=3,Linecode=CAB202_3_3_3,Length=0.062821000,Units=km
new line.SMT_12113207 bus1=BMT8705800B.1.2.3,bus2=BMT8705792B.1.2.3,Phases=3,Linecode=CAB202_3_3_3,Length=0.076182000,Units=km
new line.SMT_12113208 bus1=BMT8705792B.1.2.3,bus2=BMT8705789B.1.2.3,Phases=3,Linecode=CAB202_3_3_3,Length=0.070959000,Units=km
new line.SMT_12113209 bus1=BMT8705789B.1.2.3,bus2=BMT8705798B.1.2.3,Phases=3,Linecode=CAB202_3_3_3,Length=0.098890000,Units=km
new line.SMT_12113210 bus1=BMT8705798B.1.2.3,bus2=BMT8705785B.1.2.3,Phases=3,Linecode=CAB202_3_3_3,Length=0.180528000,Units=km
new line.SMT_12113212 bus1=BMT8705785B.1.2.3,bus2=BMT8705783B.1.2.3,Phases=3,Linecode=CAB202_3_3_3,Length=0.158495000,Units=km
new line.SMT_12113213 bus1=BMT8705783B.1.2.3,bus2=BMT8705782B.1.2.3,Phases=3,Linecode=CAB202_3_3_3,Length=0.115985000,Units=km
new line.SMT_12113214 bus1=BMT8705782B.1.2.3,bus2=BMT177703071.1.2.3,Phases=3,Linecode=CAB202_3_3_3,Length=0.272293000,Units=km
...
