2024_89_CemigReconfigurationCases/1_SEsCemig/SRS02/SRS02ChavesMT.dss
new line.CTR10129 bus1=BMT125568965.1,bus2=BMT139445436.1,Phases=1,LineCode=tieSwitch1,Length=0.001,Units=km,switch=T !numEQ NUMEQ:172500  - Data de conexão anterior06/2011.
new line.CTR10136 bus1=BMT125569721.1,bus2=BMT125571394.1,Phases=1,LineCode=tieSwitch1,Length=0.001,Units=km,switch=T !numEQ NUMEQ:172253  - Data de conexão anterior06/2011.
new line.CTR101493 bus1=BMT168100360.1.2.3,bus2=BMT166720167.1.2.3,Phases=3,LineCode=tieSwitch,Length=0.001,Units=km,switch=T !numEQ NUMEQ:239465  - Data de conexão anterior06/2011.
open line.CTR101493 term=1
new line.CTR111153 bus1=BMT125578289.1.2.3,bus2=BMT172566187.1.2.3,Phases=3,LineCode=tieSwitch,Length=0.001,Units=km,switch=T !numEQ NUMEQ:44348  - Data de conexão anterior06/2011.
new line.CTR112175 bus1=BMT125583315.1.2.3,bus2=BMT125583511.1.2.3,Phases=3,LineCode=tieSwitch,Length=0.001,Units=km,switch=T !numEQ NUMEQ:137125  - Data de conexão anterior06/2011.
new line.CTR112189 bus1=BMT125583518.1.2.3,bus2=BMT125583532.1.2.3,Phases=3,LineCode=tieSwitch,Length=0.001,Units=km,switch=T !numEQ NUMEQ:137126  - Data de conexão anterior06/2011.
new line.CTR132503 bus1=BMT166719772.1.2.3,bus2=BMT170700968.1.2.3,Phases=3,LineCode=tieSwitch,Length=0.001,Units=km,switch=T !numEQ NUMEQ:65018  - Data de conexão anterior06/2011.
new line.CTR132524 bus1=BMT170700972.1.2.3,bus2=BMT2563785.1.2.3,Phases=3,LineCode=tieSwitch,Length=0.001,Units=km,switch=T !numEQ NUMEQ:45730  - Data de conexão anterior06/2011.
open line.CTR132524 term=1
new line.CTR132545 bus1=BMT166719818.1.2.3,bus2=BMT181382111.1.2.3,Phases=3,LineCode=tieSwitch,Length=0.001,Units=km,switch=T !numEQ NUMEQ:239460  - Data de conexão anterior06/2011.
new line.CTR132552 bus1=BMT166720024.1,bus2=BMT166720621.1,Phases=1,LineCode=tieSwitch1,Length=0.001,Units=km,switch=T !numEQ NUMEQ:269111  - Data de conexão anterior06/2011.
new line.CTR132559 bus1=BMT166720028.2,bus2=BMT167171349.2,Phases=1,LineCode=tieSwitch1,Length=0.001,Units=km,switch=T !numEQ NUMEQ:301906  - Data de conexão anterior06/2011.
new line.CTR132566 bus1=BMT166720033.1,bus2=BMT172640557.1,Phases=1,LineCode=tieSwitch1,Length=0.001,Units=km,switch=T !numEQ NUMEQ:239429  - Data de conexão anterior06/2011.
new line.CTR132573 bus1=BMT166720045.2,bus2=BMT166720552.2,Phases=1,LineCode=tieSwitch1,Length=0.001,Units=km,switch=T !numEQ NUMEQ:239431  - Data de conexão anterior06/2011.
new line.CTR132587 bus1=BMT166720070.1.2.3,bus2=BMT168098901.1.2.3,Phases=3,LineCode=tieSwitch,Length=0.001,Units=km,switch=T !numEQ NUMEQ:239439  - Data de conexão anterior06/2011.
new line.CTR132594 bus1=BMT166720084.3,bus2=BMT166720247.3,Phases=1,LineCode=tieSwitch1,Length=0.001,Units=km,switch=T !numEQ NUMEQ:239441  - Data de conexão anterior06/2011.
new line.CTR132601 bus1=BMT166720140.1.2.3,bus2=BMT166720188.1.2.3,Phases=3,LineCode=tieSwitch,Length=0.001,Units=km,switch=T !numEQ NUMEQ:244250  - Data de conexão anterior06/2011.
new line.CTR132615 bus1=BMT166720324.1,bus2=BMT166720333.1,Phases=1,LineCode=tieSwitch1,Length=0.001,Units=km,switch=T !numEQ NUMEQ:63278
new line.CTR132643 bus1=BMT166721033.2,bus2=BMT173932713.2,Phases=1,LineCode=tieSwitch1,Length=0.001,Units=km,switch=T !numEQ NUMEQ:47460  - Data de conexão anterior06/2011.
new line.CTR132650 bus1=BMT166720438.2,bus2=BMT179282523.2,Phases=1,LineCode=tieSwitch1,Length=0.001,Units=km,switch=T !numEQ NUMEQ:64113  - Data de conexão anterior06/2011.
new line.CTR132671 bus1=BMT166720880.1.2.3,bus2=BMT183451007.1.2.3,Phases=3,LineCode=tieSwitch,Length=0.001,Units=km,switch=T !numEQ NUMEQ:63275  - Data de conexão anterior06/2011.
new line.CTR132685 bus1=BMT166720913.1.2.3,bus2=BMT182851699.1.2.3,Phases=3,LineCode=tieSwitch,Length=0.001,Units=km,switch=T !numEQ NUMEQ:221593
new line.CTR132699 bus1=BMT166720967.3,bus2=BMT166720971.3,Phases=1,LineCode=tieSwitch1,Length=0.001,Units=km,switch=T !numEQ NUMEQ:64161  - Data de conexão anterior06/2011.
new line.CTR132720 bus1=BMT166720919.1.2.3,bus2=BMT166721155.1.2.3,Phases=3,LineCode=tieSwitch,Length=0.001,Units=km,switch=T !numEQ NUMEQ:45711  - Data de conexão anterior06/2011.
new line.CTR132734 bus1=BMT166720214.2,bus2=BMT166720219.2,Phases=1,LineCode=tieSwitch1,Length=0.001,Units=km,switch=T !numEQ NUMEQ:63274  - Data de conexão anterior06/2011.
new line.CTR132741 bus1=BMT166720089.2,bus2=BMT167201293.2,Phases=1,LineCode=tieSwitch1,Length=0.001,Units=km,switch=T !numEQ NUMEQ:239444  - Data de conexão anterior06/2011.
new line.CTR132769 bus1=BMT166719840.2,bus2=BMT166720005.2,Phases=1,LineCode=tieSwitch1,Length=0.001,Units=km,switch=T !numEQ NUMEQ:63377  - Data de conexão anterior06/2011.
new line.CTR132790 bus1=BMT166720672.2,bus2=BMT166720682.2,Phases=1,LineCode=tieSwitch1,Length=0.001,Units=km,switch=T !numEQ NUMEQ:62654
new line.CTR132797 bus1=BMT166719918.2,bus2=BMT166719975.2,Phases=1,LineCode=tieSwitch1,Length=0.001,Units=km,switch=T !numEQ NUMEQ:62610  - Data de conexão anterior06/2011.
new line.CTR132804 bus1=BMT125591554.1.2.3,bus2=BMT125591561.1.2.3,Phases=3,LineCode=tieSwitch,Length=0.001,Units=km,switch=T !numEQ NUMEQ:63300  - Data de conexão anterior06/2011.
new line.CTR132839 bus1=BMT125590784.1.2.3,bus2=BMT125595509.1.2.3,Phases=3,LineCode=tieSwitch,Length=0.001,Units=km,switch=T !numEQ NUMEQ:45717  - Data de conexão anterior06/2011.
new line.CTR132846 bus1=BMT125590819.1.2.3,bus2=BMT180465728.1.2.3,Phases=3,LineCode=tieSwitch,Length=0.001,Units=km,switch=T !numEQ NUMEQ:44616  - Data de conexão anterior06/2011.
new line.CTR132853 bus1=BMT125591106.1,bus2=BMT125594522.1,Phases=1,LineCode=tieSwitch1,Length=0.001,Units=km,switch=T !numEQ NUMEQ:64469  - Data de conexão anterior06/2011.
new line.CTR132860 bus1=BMT125591596.1.2.3,bus2=BMT172572330.1.2.3,Phases=3,LineCode=tieSwitch,Length=0.001,Units=km,switch=T !numEQ NUMEQ:62955  - Data de conexão anterior06/2011.
new line.CTR132867 bus1=BMT125592842.2,bus2=BMT181794671.2,Phases=1,LineCode=tieSwitch1,Length=0.001,Units=km,switch=T !numEQ NUMEQ:79183  - Data de conexão anterior06/2011.
new line.CTR132881 bus1=BMT125592471.2,bus2=BMT168916801.2,Phases=1,LineCode=tieSwitch1,Length=0.001,Units=km,switch=T !numEQ NUMEQ:62959  - Data de conexão anterior06/2011.
new line.CTR132895 bus1=BMT125591988.1.2.3,bus2=BMT125592324.1.2.3,Phases=3,LineCode=tieSwitch,Length=0.001,Units=km,switch=T !numEQ NUMEQ:63313  - Data de conexão anterior06/2011.
new line.CTR132902 bus1=BMT171348563.1.2.3,bus2=BMT181010865.1.2.3,Phases=3,LineCode=tieSwitch,Length=0.001,Units=km,switch=T !numEQ NUMEQ:277417
new line.CTR132909 bus1=BMT125591120.1.2.3,bus2=BMT160122623.1.2.3,Phases=3,LineCode=tieSwitch,Length=0.001,Units=km,switch=T !numEQ NUMEQ:62973  - Data de conexão anterior06/2011.
new line.CTR132923 bus1=BMT125595040.3,bus2=BMT174701534.3,Phases=1,LineCode=tieSwitch1,Length=0.001,Units=km,switch=T !numEQ NUMEQ:79356  - Data de conexão anterior06/2011.
new line.CTR132930 bus1=BMT125593549.1.2.3,bus2=BMT182547668.1.2.3,Phases=3,LineCode=tieSwitch,Length=0.001,Units=km,switch=T !numEQ NUMEQ:62643  - Data de conexão anterior06/2011.
new line.CTR132937 bus1=BMT125593752.2,bus2=BMT145558816.2,Phases=1,LineCode=tieSwitch1,Length=0.001,Units=km,switch=T !numEQ NUMEQ:63825  - Data de conexão anterior06/2011.
new line.CTR132944 bus1=BMT166720791.1.2.3,bus2=BMT183111159.1.2.3,Phases=3,LineCode=tieSwitch,Length=0.001,Units=km,switch=T !numEQ NUMEQ:174544  - Data de conexão anterior06/2011.
new line.CTR132951 bus1=BMT125591813.1.2.3,bus2=BMT172095365.1.2.3,Phases=3,LineCode=tieSwitch,Length=0.001,Units=km,switch=T !numEQ NUMEQ:47665  - Data de conexão anterior06/2011.
new line.CTR132965 bus1=BMT125591827.3,bus2=BMT150653029.3,Phases=1,LineCode=tieSwitch1,Length=0.001,Units=km,switch=T !numEQ NUMEQ:63826  - Data de conexão anterior06/2011.
new line.CTR132979 bus1=BMT125593612.2,bus2=BMT145558137.2,Phases=1,LineCode=tieSwitch1,Length=0.001,Units=km,switch=T !numEQ NUMEQ:63821  - Data de conexão anterior06/2011.
new line.CTR132993 bus1=BMT125591267.2,bus2=BMT160800632.2,Phases=1,LineCode=tieSwitch1,Length=0.001,Units=km,switch=T !numEQ NUMEQ:63734  - Data de conexão anterior06/2011.
new line.CTR133000 bus1=BMT125595250.1.2.3,bus2=BMT125595411.1.2.3,Phases=3,LineCode=tieSwitch,Length=0.001,Units=km,switch=T !numEQ NUMEQ:64417  - Data de conexão anterior06/2011.
new line.CTR102802 bus1=BMT167113758.1.2.3,bus2=BMT166721214.1.2.3,Phases=3,LineCode=tieSwitch,Length=0.001,Units=km,switch=T !numEQ NUMEQ:62141  - Data de conexão anterior06/2011.
open line.CTR102802 term=1
new line.CTR11256 bus1=BMT180409412.3,bus2=BMT166720885.3,Phases=1,LineCode=tieSwitch1,Length=0.001,Units=km,switch=T !numEQ NUMEQ:15747  - Data de conexão anterior06/2011.
open line.CTR11256 term=1
new line.CTR112931 bus1=BMT125573249.3,bus2=BMT125573256.3,Phases=1,LineCode=tieSwitch1,Length=0.001,Units=km,switch=T !numEQ NUMEQ:64070  - Data de conexão anterior06/2011.
new line.CTR112945 bus1=BMT125573389.3,bus2=BMT181624644.3,Phases=1,LineCode=tieSwitch1,Length=0.001,Units=km,switch=T !numEQ NUMEQ:62604  - Data de conexão anterior06/2011.
new line.CTR113582 bus1=BMT169893419.1.2.3,bus2=BMT169893425.1.2.3,Phases=3,LineCode=tieSwitch,Length=0.001,Units=km,switch=T !numEQ NUMEQ:195340  - Data de conexão anterior06/2011.
new line.CTR131663 bus1=BMT169893027.1.2.3,bus2=BMT175966925.1.2.3,Phases=3,LineCode=tieSwitch,Length=0.001,Units=km,switch=T !numEQ NUMEQ:62105  - Data de conexão anterior06/2011.
new line.CTR131670 bus1=BMT169893045.1.2.3,bus2=BMT169893053.1.2.3,Phases=3,LineCode=tieSwitch,Length=0.001,Units=km,switch=T !numEQ NUMEQ:234589  - Data de conexão anterior06/2011.
new line.CTR131677 bus1=BMT169893071.1.2.3,bus2=BMT169893106.1.2.3,Phases=3,LineCode=tieSwitch,Length=0.001,Units=km,switch=T !numEQ NUMEQ:63341  - Data de conexão anterior06/2011.
new line.CTR131691 bus1=BMT173678122.1.2.3,bus2=BMT169893023.1.2.3,Phases=3,LineCode=tieSwitch,Length=0.001,Units=km,switch=T !numEQ NUMEQ:62104  - Data de conexão anterior06/2011.
open line.CTR131691 term=1
new line.CTR131698 bus1=BMT169893240.1.2.3,bus2=BMT170742487.1.2.3,Phases=3,LineCode=tieSwitch,Length=0.001,Units=km,switch=T !numEQ NUMEQ:79186  - Data de conexão anterior06/2011.
new line.CTR131705 bus1=BMT169893261.1.2.3,bus2=BMT169893262.1.2.3,Phases=3,LineCode=tieSwitch,Length=0.001,Units=km,switch=T !numEQ NUMEQ:44955
new line.CTR131712 bus1=BMT169893296.1.2.3,bus2=BMT177723859.1.2.3,Phases=3,LineCode=tieSwitch,Length=0.001,Units=km,switch=T !numEQ NUMEQ:44420  - Data de conexão anterior06/2011.
new line.CTR131733 bus1=BMT169893347.1.2.3,bus2=BMT169893349.1.2.3,Phases=3,LineCode=tieSwitch,Length=0.001,Units=km,switch=T !numEQ NUMEQ:45216  - Data de conexão anterior06/2011.
new line.CTR131740 bus1=BMT169893241.1.2.3,bus2=BMT169893366.1.2.3,Phases=3,LineCode=tieSwitch,Length=0.001,Units=km,switch=T !numEQ NUMEQ:62113  - Data de conexão anterior06/2011.
new line.CTR131747 bus1=BMT169893387.1.2.3,bus2=BMT169893079.1.2.3,Phases=3,LineCode=tieSwitch,Length=0.001,Units=km,switch=T !numEQ NUMEQ:63265  - Data de conexão anterior06/2011.
open line.CTR131747 term=1
new line.CTR131754 bus1=BMT177958192.1.2.3,bus2=BMT177960020.1.2.3,Phases=3,LineCode=tieSwitch,Length=0.001,Units=km,switch=T !numEQ NUMEQ:232028  - Data de conexão anterior06/2011.
new line.CTR131768 bus1=BMT169893135.1.2.3,bus2=BMT169893138.1.2.3,Phases=3,LineCode=tieSwitch,Length=0.001,Units=km,switch=T !numEQ NUMEQ:269100  - Data de conexão anterior06/2011.
new line.CTR131782 bus1=BMT169893171.1.2.3,bus2=BMT177915983.1.2.3,Phases=3,LineCode=tieSwitch,Length=0.001,Units=km,switch=T !numEQ NUMEQ:64066  - Data de conexão anterior06/2011.
new line.CTR131789 bus1=BMT169893181.1.2.3,bus2=BMT169893194.1.2.3,Phases=3,LineCode=tieSwitch,Length=0.001,Units=km,switch=T !numEQ NUMEQ:45218  - Data de conexão anterior06/2011.
new line.CTR131810 bus1=BMT174923415.1.2.3,bus2=BMT2562952.1.2.3,Phases=3,LineCode=tieSwitch,Length=0.001,Units=km,switch=T !numEQ NUMEQ:64455  - Data de conexão anterior06/2011.
open line.CTR131810 term=1
new line.CTR131838 bus1=BMT125577855.1.2.3,bus2=BMT175363516.1.2.3,Phases=3,LineCode=tieSwitch,Length=0.001,Units=km,switch=T !numEQ NUMEQ:62308  - Data de conexão anterior06/2011.
new line.CTR131845 bus1=BMT125578912.1.2.3,bus2=BMT183836540.1.2.3,Phases=3,LineCode=tieSwitch,Length=0.001,Units=km,switch=T !numEQ NUMEQ:62315  - Data de conexão anterior06/2011.
new line.CTR131852 bus1=BMT157285845.1.2.3,bus2=BMT162557053.1.2.3,Phases=3,LineCode=tieSwitch,Length=0.001,Units=km,switch=T !numEQ NUMEQ:236810
new line.CTR131880 bus1=BMT183510666.1.2.3,bus2=BMT183510667.1.2.3,Phases=3,LineCode=tieSwitch,Length=0.001,Units=km,switch=T !numEQ NUMEQ:236809
new line.CTR131894 bus1=BMT125579472.1.2.3,bus2=BMT183374814.1.2.3,Phases=3,LineCode=tieSwitch,Length=0.001,Units=km,switch=T !numEQ NUMEQ:63457  - Data de conexão anterior06/2011.
new line.CTR131901 bus1=BMT125579535.1.2.3,bus2=BMT125580557.1.2.3,Phases=3,LineCode=tieSwitch,Length=0.001,Units=km,switch=T !numEQ NUMEQ:63467  - Data de conexão anterior06/2011.
new line.CTR131908 bus1=BMT125580228.2,bus2=BMT125580536.2,Phases=1,LineCode=tieSwitch1,Length=0.001,Units=km,switch=T !numEQ NUMEQ:62969  - Data de conexão anterior06/2011.
new line.CTR131922 bus1=BMT125580277.1.2.3,bus2=BMT125580347.1.2.3,Phases=3,LineCode=tieSwitch,Length=0.001,Units=km,switch=T !numEQ NUMEQ:63948  - Data de conexão anterior06/2011.
new line.CTR131929 bus1=BMT125580564.1,bus2=BMT125580578.1,Phases=1,LineCode=tieSwitch1,Length=0.001,Units=km,switch=T !numEQ NUMEQ:47252  - Data de conexão anterior06/2011.
new line.CTR131936 bus1=BMT125579794.1,bus2=BMT177503964.1,Phases=1,LineCode=tieSwitch1,Length=0.001,Units=km,switch=T !numEQ NUMEQ:63347  - Data de conexão anterior06/2011.
new line.CTR131943 bus1=BMT125580816.3,bus2=BMT164676201.3,Phases=1,LineCode=tieSwitch1,Length=0.001,Units=km,switch=T !numEQ NUMEQ:62968
new line.CTR131964 bus1=BMT125579927.1,bus2=BMT177503991.1,Phases=1,LineCode=tieSwitch1,Length=0.001,Units=km,switch=T !numEQ NUMEQ:63675  - Data de conexão anterior06/2011.
new line.CTR131971 bus1=BMT125581145.3,bus2=BMT125582328.3,Phases=1,LineCode=tieSwitch1,Length=0.001,Units=km,switch=T !numEQ NUMEQ:63369  - Data de conexão anterior06/2011.
new line.CTR131978 bus1=BMT125581467.3,bus2=BMT182912663.3,Phases=1,LineCode=tieSwitch1,Length=0.001,Units=km,switch=T !numEQ NUMEQ:252712  - Data de conexão anterior06/2011.
new line.CTR132027 bus1=BMT125577820.1.2.3,bus2=BMT125578149.1.2.3,Phases=3,LineCode=tieSwitch,Length=0.001,Units=km,switch=T !numEQ NUMEQ:64170  - Data de conexão anterior06/2011.
new line.CTR132265 bus1=BMT125569770.1,bus2=BMT125571380.1,Phases=1,LineCode=tieSwitch1,Length=0.001,Units=km,switch=T !numEQ NUMEQ:133747  - Data de conexão anterior06/2011.
new line.CTR132356 bus1=BMT125569924.2,bus2=BMT125570897.2,Phases=1,LineCode=tieSwitch1,Length=0.001,Units=km,switch=T !numEQ NUMEQ:135094  - Data de conexão anterior06/2011.
new line.CTR143493 bus1=BMT125592443.2,bus2=BMT168916797.2,Phases=1,LineCode=tieSwitch1,Length=0.001,Units=km,switch=T !numEQ NUMEQ:63461  - Data de conexão anterior06/2011.
new line.CTR14350 bus1=BMT183451010.1.2.3,bus2=BMT166720892.1.2.3,Phases=3,LineCode=tieSwitch,Length=0.001,Units=km,switch=T !numEQ NUMEQ:63455  - Data de conexão anterior06/2011.
new line.CTR143710 bus1=BMT125561398.2,bus2=BMT158588049.2,Phases=1,LineCode=tieSwitch1,Length=0.001,Units=km,switch=T !numEQ NUMEQ:62338  - Data de conexão anterior06/2011.
new line.CTR161126 bus1=BMT125577918.1.2.3,bus2=BMT133048605.1.2.3,Phases=3,LineCode=tieSwitch,Length=0.001,Units=km,switch=T !numEQ NUMEQ:136521  - Data de conexão anterior06/2011.
new line.CTR161308 bus1=BMT173932489.1.2.3,bus2=BMT183829912.1.2.3,Phases=3,LineCode=tieSwitch,Length=0.001,Units=km,switch=T !numEQ NUMEQ:115777
new line.CTR16149 bus1=BMT169893269.1.2.3,bus2=BMT169893292.1.2.3,Phases=3,LineCode=tieSwitch,Length=0.001,Units=km,switch=T !numEQ NUMEQ:62118  - Data de conexão anterior06/2011.
new line.CTR16177 bus1=BMT125578380.1.2.3,bus2=BMT153550756.1.2.3,Phases=3,LineCode=tieSwitch,Length=0.001,Units=km,switch=T !numEQ NUMEQ:79353  - Data de conexão anterior06/2011.
new line.CTR182469 bus1=BMT125568349.3,bus2=BMT183206078.3,Phases=1,LineCode=tieSwitch1,Length=0.001,Units=km,switch=T !numEQ NUMEQ:316185  - Data de conexão anterior06/2011.
new line.CTR182560 bus1=BMT133288474.1,bus2=BMT179583941.1,Phases=1,LineCode=tieSwitch1,Length=0.001,Units=km,switch=T !numEQ NUMEQ:172703
new line.CTR182931 bus1=BMT125594431.2,bus2=BMT125594466.2,Phases=1,LineCode=tieSwitch1,Length=0.001,Units=km,switch=T !numEQ NUMEQ:46311  - Data de conexão anterior06/2011.
new line.CTR10472 bus1=BMT159313434.3,bus2=BMT159313618.3,Phases=1,LineCode=tieSwitch1,Length=0.001,Units=km,switch=T !numEQ NUMEQ:172780  - Data de conexão anterior06/2011.
new line.CTR105168 bus1=BMT125561195.2,bus2=BMT125561748.2,Phases=1,LineCode=tieSwitch1,Length=0.001,Units=km,switch=T !numEQ NUMEQ:63363  - Data de conexão anterior06/2011.
new line.CTR117222 bus1=BMT125555070.1.2.3,bus2=BMT159915806.1.2.3,Phases=3,LineCode=tieSwitch,Length=0.001,Units=km,switch=T !numEQ NUMEQ:62150  - Data de conexão anterior06/2011.
new line.CTR120743 bus1=BMT167178872.1.2.3,bus2=BMT125555910.1.2.3,Phases=3,LineCode=tieSwitch,Length=0.001,Units=km,switch=T !numEQ NUMEQ:305022  - Data de conexão anterior06/2011.
open line.CTR120743 term=1
new line.CTR120750 bus1=BMT125558038.2,bus2=BMT179310827.2,Phases=1,LineCode=tieSwitch1,Length=0.001,Units=km,switch=T !numEQ NUMEQ:62317  - Data de conexão anterior06/2011.
new line.CTR120757 bus1=BMT125557093.2,bus2=BMT125557100.2,Phases=1,LineCode=tieSwitch1,Length=0.001,Units=km,switch=T !numEQ NUMEQ:90995  - Data de conexão anterior06/2011.
new line.CTR120764 bus1=BMT125557114.2,bus2=BMT175039300.2,Phases=1,LineCode=tieSwitch1,Length=0.001,Units=km,switch=T !numEQ NUMEQ:90398
new line.CTR120771 bus1=BMT125556764.1,bus2=BMT125556771.1,Phases=1,LineCode=tieSwitch1,Length=0.001,Units=km,switch=T !numEQ NUMEQ:63093  - Data de conexão anterior06/2011.
new line.CTR120778 bus1=BMT125556064.1.2.3,bus2=BMT125556113.1.2.3,Phases=3,LineCode=tieSwitch,Length=0.001,Units=km,switch=T !numEQ NUMEQ:62195  - Data de conexão anterior06/2011.
new line.CTR120792 bus1=BMT125555840.1.2.3,bus2=BMT125558493.1.2.3,Phases=3,LineCode=tieSwitch,Length=0.001,Units=km,switch=T !numEQ NUMEQ:62259  - Data de conexão anterior06/2011.
new line.CTR120799 bus1=BMT125560348.3,bus2=BMT125560516.3,Phases=1,LineCode=tieSwitch1,Length=0.001,Units=km,switch=T !numEQ NUMEQ:63579  - Data de conexão anterior06/2011.
new line.CTR120806 bus1=BMT125558724.2,bus2=BMT158653083.2,Phases=1,LineCode=tieSwitch1,Length=0.001,Units=km,switch=T !numEQ NUMEQ:63585  - Data de conexão anterior06/2011.
new line.CTR120813 bus1=BMT173414129.1.2.3,bus2=BMT125555882.1.2.3,Phases=3,LineCode=tieSwitch,Length=0.001,Units=km,switch=T !numEQ NUMEQ:64406  - Data de conexão anterior06/2011.
new line.CTR120820 bus1=BMT171157090.2,bus2=BMT171632014.2,Phases=1,LineCode=tieSwitch1,Length=0.001,Units=km,switch=T !numEQ NUMEQ:63584  - Data de conexão anterior06/2011.
new line.CTR120827 bus1=BMT125555588.1,bus2=BMT173678048.1,Phases=1,LineCode=tieSwitch1,Length=0.001,Units=km,switch=T !numEQ NUMEQ:90978
new line.CTR120855 bus1=BMT125555413.2,bus2=BMT148735574.2,Phases=1,LineCode=tieSwitch1,Length=0.001,Units=km,switch=T !numEQ NUMEQ:63965  - Data de conexão anterior06/2011.
new line.CTR120862 bus1=BMT125555301.1.2.3,bus2=BMT133090899.1.2.3,Phases=3,LineCode=tieSwitch,Length=0.001,Units=km,switch=T !numEQ NUMEQ:228550  - Data de conexão anterior06/2011.
new line.CTR120869 bus1=BMT125559676.2,bus2=BMT125559760.2,Phases=1,LineCode=tieSwitch1,Length=0.001,Units=km,switch=T !numEQ NUMEQ:62494  - Data de conexão anterior06/2011.
new line.CTR120876 bus1=BMT125559732.2,bus2=BMT180595239.2,Phases=1,LineCode=tieSwitch1,Length=0.001,Units=km,switch=T !numEQ NUMEQ:63007  - Data de conexão anterior06/2011.
new line.CTR120883 bus1=BMT125560222.1.2.3,bus2=BMT176411641.1.2.3,Phases=3,LineCode=tieSwitch,Length=0.001,Units=km,switch=T !numEQ NUMEQ:299459  - Data de conexão anterior06/2011.
new line.CTR120897 bus1=BMT125555196.1.2.3,bus2=BMT155649679.1.2.3,Phases=3,LineCode=tieSwitch,Length=0.001,Units=km,switch=T !numEQ NUMEQ:228549  - Data de conexão anterior06/2011.
new line.CTR120904 bus1=BMT125555294.1.2.3,bus2=BMT125560187.1.2.3,Phases=3,LineCode=tieSwitch,Length=0.001,Units=km,switch=T !numEQ NUMEQ:106764  - Data de conexão anterior06/2011.
new line.CTR121212 bus1=BMT125563407.1.2.3,bus2=BMT174411474.1.2.3,Phases=3,LineCode=tieSwitch,Length=0.001,Units=km,switch=T !numEQ NUMEQ:63094  - Data de conexão anterior06/2011.
new line.CTR121219 bus1=BMT125564072.3,bus2=BMT178921312.3,Phases=1,LineCode=tieSwitch1,Length=0.001,Units=km,switch=T !numEQ NUMEQ:63871  - Data de conexão anterior06/2011.
new line.CTR121226 bus1=BMT182116678.1.2.3,bus2=BMT169190417.1.2.3,Phases=3,LineCode=tieSwitch,Length=0.001,Units=km,switch=T !numEQ NUMEQ:63432  - Data de conexão anterior06/2011.
open line.CTR121226 term=1
new line.CTR122045 bus1=BMT177104653.3,bus2=BMT125580879.3,Phases=1,LineCode=tieSwitch1,Length=0.001,Units=km,switch=T !numEQ NUMEQ:173105  - Data de conexão anterior06/2011.
new line.CTR13538 bus1=BMT166720474.3,bus2=BMT166720513.3,Phases=1,LineCode=tieSwitch1,Length=0.001,Units=km,switch=T !numEQ NUMEQ:63456  - Data de conexão anterior06/2011.
new line.CTR135401 bus1=BMT183093778.2,bus2=BMT183134117.2,Phases=1,LineCode=tieSwitch1,Length=0.001,Units=km,switch=T !numEQ NUMEQ:174530  - Data de conexão anterior06/2011.
new line.CTR135408 bus1=BMT166720858.1,bus2=BMT166721404.1,Phases=1,LineCode=tieSwitch1,Length=0.001,Units=km,switch=T !numEQ NUMEQ:174531  - Data de conexão anterior06/2011.
new line.CTR135415 bus1=BMT166720870.1.2.3,bus2=BMT180894911.1.2.3,Phases=3,LineCode=tieSwitch,Length=0.001,Units=km,switch=T !numEQ NUMEQ:174017  - Data de conexão anterior06/2011.
new line.CTR135611 bus1=BMT166719758.1.2.3,bus2=BMT166719759.1.2.3,Phases=3,LineCode=tieSwitch,Length=0.001,Units=km,switch=T !numEQ NUMEQ:79782  - Data de conexão anterior06/2011.
new line.CTR13566 bus1=BMT125563099.1.2.3,bus2=BMT182116669.1.2.3,Phases=3,LineCode=tieSwitch,Length=0.001,Units=km,switch=T !numEQ NUMEQ:100739  - Data de conexão anterior06/2011.
new line.CTR146314 bus1=BMT125578338.1.2.3,bus2=BMT167907773.1.2.3,Phases=3,LineCode=tieSwitch,Length=0.001,Units=km,switch=T !numEQ NUMEQ:238946  - Data de conexão anterior06/2011.
new line.CTR147371 bus1=BMT179583906.1,bus2=BMT125567390.1,Phases=1,LineCode=tieSwitch1,Length=0.001,Units=km,switch=T !numEQ NUMEQ:63261
new line.CTR155638 bus1=BMT125569896.1,bus2=BMT179661556.1,Phases=1,LineCode=tieSwitch1,Length=0.001,Units=km,switch=T !numEQ NUMEQ:63273
new line.CTR155911 bus1=BMT125591169.1.2.3,bus2=BMT155515269.1.2.3,Phases=3,LineCode=tieSwitch,Length=0.001,Units=km,switch=T !numEQ NUMEQ:63380  - Data de conexão anterior06/2011.
new line.CTR162645 bus1=BMT166720061.3,bus2=BMT166720418.3,Phases=1,LineCode=tieSwitch1,Length=0.001,Units=km,switch=T !numEQ NUMEQ:239436  - Data de conexão anterior06/2011.
new line.CTR16338 bus1=BMT125578583.1.2.3,bus2=BMT177664239.1.2.3,Phases=3,LineCode=tieSwitch,Length=0.001,Units=km,switch=T !numEQ NUMEQ:238949  - Data de conexão anterior06/2011.
new line.CTR163401 bus1=BMT125573984.3,bus2=BMT125573998.3,Phases=1,LineCode=tieSwitch1,Length=0.001,Units=km,switch=T !numEQ NUMEQ:173089  - Data de conexão anterior06/2011.
new line.CTR163485 bus1=BMT166720060.1,bus2=BMT166720422.1,Phases=1,LineCode=tieSwitch1,Length=0.001,Units=km,switch=T !numEQ NUMEQ:239435  - Data de conexão anterior06/2011.
new line.CTR172214 bus1=BMT125555798.2,bus2=BMT125558535.2,Phases=1,LineCode=tieSwitch1,Length=0.001,Units=km,switch=T !numEQ NUMEQ:110130  - Data de conexão anterior06/2011.
new line.CTR172263 bus1=BMT125578107.1.2.3,bus2=BMT150346793.1.2.3,Phases=3,LineCode=tieSwitch,Length=0.001,Units=km,switch=T !numEQ NUMEQ:209799  - Data de conexão anterior06/2011.
new line.CTR172536 bus1=BMT125584183.1.2.3,bus2=BMT167930428.1.2.3,Phases=3,LineCode=tieSwitch,Length=0.001,Units=km,switch=T !numEQ NUMEQ:207193  - Data de conexão anterior06/2011.
new line.CTR173439 bus1=BMT125579500.1.2.3,bus2=BMT125580606.1.2.3,Phases=3,LineCode=tieSwitch,Length=0.001,Units=km,switch=T !numEQ NUMEQ:172704  - Data de conexão anterior06/2011.
new line.CTR185360 bus1=BMT166719928.2,bus2=BMT166719932.2,Phases=1,LineCode=tieSwitch1,Length=0.001,Units=km,switch=T !numEQ NUMEQ:201340  - Data de conexão anterior06/2011.
new line.CTR185367 bus1=BMT166720096.1.2.3,bus2=BMT169056875.1.2.3,Phases=3,LineCode=tieSwitch,Length=0.001,Units=km,switch=T !numEQ NUMEQ:201341
new line.CTR185374 bus1=BMT125579451.2,bus2=BMT178703388.2,Phases=1,LineCode=tieSwitch1,Length=0.001,Units=km,switch=T !numEQ NUMEQ:63949  - Data de conexão anterior06/2011.
new line.CTR133028 bus1=BMT125554881.1.2.3,bus2=BMT163067259.1.2.3,Phases=3,LineCode=tieSwitch,Length=0.001,Units=km,switch=T !numEQ NUMEQ:63940  - Data de conexão anterior06/2011.
new line.CTR133049 bus1=BMT125562392.1.2.3,bus2=BMT125567173.1.2.3,Phases=3,LineCode=tieSwitch,Length=0.001,Units=km,switch=T !numEQ NUMEQ:64427  - Data de conexão anterior06/2011.
new line.CTR133056 bus1=BMT125562161.3,bus2=BMT149330290.3,Phases=1,LineCode=tieSwitch1,Length=0.001,Units=km,switch=T !numEQ NUMEQ:145170  - Data de conexão anterior06/2011.
new line.CTR133063 bus1=BMT157445781.1.2.3,bus2=BMT125562322.1.2.3,Phases=3,LineCode=tieSwitch,Length=0.001,Units=km,switch=T !numEQ NUMEQ:145257  - Data de conexão anterior06/2011.
new line.CTR133077 bus1=BMT125565591.2,bus2=BMT165238487.2,Phases=1,LineCode=tieSwitch1,Length=0.001,Units=km,switch=T !numEQ NUMEQ:63251
new line.CTR133084 bus1=BMT125566081.1,bus2=BMT168199130.1,Phases=1,LineCode=tieSwitch1,Length=0.001,Units=km,switch=T !numEQ NUMEQ:64026  - Data de conexão anterior06/2011.
new line.CTR133098 bus1=BMT125567537.1,bus2=BMT179583973.1,Phases=1,LineCode=tieSwitch1,Length=0.001,Units=km,switch=T !numEQ NUMEQ:63283  - Data de conexão anterior06/2011.
new line.CTR133119 bus1=BMT125562455.3,bus2=BMT125565948.3,Phases=1,LineCode=tieSwitch1,Length=0.001,Units=km,switch=T !numEQ NUMEQ:64429  - Data de conexão anterior06/2011.
new line.CTR133133 bus1=BMT125562539.1.2.3,bus2=BMT178680920.1.2.3,Phases=3,LineCode=tieSwitch,Length=0.001,Units=km,switch=T !numEQ NUMEQ:143316  - Data de conexão anterior06/2011.
new line.CTR133140 bus1=BMT125562525.3,bus2=BMT125565871.3,Phases=1,LineCode=tieSwitch1,Length=0.001,Units=km,switch=T !numEQ NUMEQ:64452  - Data de conexão anterior06/2011.
new line.CTR133154 bus1=BMT125567180.1.2.3,bus2=BMT161766150.1.2.3,Phases=3,LineCode=tieSwitch,Length=0.001,Units=km,switch=T !numEQ NUMEQ:62888  - Data de conexão anterior06/2011.
new line.CTR133168 bus1=BMT125555014.1.2.3,bus2=BMT181642178.1.2.3,Phases=3,LineCode=tieSwitch,Length=0.001,Units=km,switch=T !numEQ NUMEQ:62149  - Data de conexão anterior06/2011.
new line.CTR133210 bus1=BMT125568636.1.2.3,bus2=BMT163376126.1.2.3,Phases=3,LineCode=tieSwitch,Length=0.001,Units=km,switch=T !numEQ NUMEQ:47394
new line.CTR133238 bus1=BMT125568846.1,bus2=BMT171653138.1,Phases=1,LineCode=tieSwitch1,Length=0.001,Units=km,switch=T !numEQ NUMEQ:63946  - Data de conexão anterior06/2011.
new line.CTR133245 bus1=BMT125569679.3,bus2=BMT179774125.3,Phases=1,LineCode=tieSwitch1,Length=0.001,Units=km,switch=T !numEQ NUMEQ:64106  - Data de conexão anterior06/2011.
new line.CTR133252 bus1=BMT125574502.3,bus2=BMT176541601.3,Phases=1,LineCode=tieSwitch1,Length=0.001,Units=km,switch=T !numEQ NUMEQ:62146  - Data de conexão anterior06/2011.
new line.CTR133287 bus1=BMT125569224.3,bus2=BMT125574278.3,Phases=1,LineCode=tieSwitch1,Length=0.001,Units=km,switch=T !numEQ NUMEQ:63660
new line.CTR133301 bus1=BMT125569560.1,bus2=BMT125571709.1,Phases=1,LineCode=tieSwitch1,Length=0.001,Units=km,switch=T !numEQ NUMEQ:47381  - Data de conexão anterior06/2011.
new line.CTR133364 bus1=BMT125572073.3,bus2=BMT182116762.3,Phases=1,LineCode=tieSwitch1,Length=0.001,Units=km,switch=T !numEQ NUMEQ:62602  - Data de conexão anterior06/2011.
new line.CTR133399 bus1=BMT125569504.1.2.3,bus2=BMT171706641.1.2.3,Phases=3,LineCode=tieSwitch,Length=0.001,Units=km,switch=T !numEQ NUMEQ:47463  - Data de conexão anterior06/2011.
new line.CTR133469 bus1=BMT125572339.3,bus2=BMT125573193.3,Phases=1,LineCode=tieSwitch1,Length=0.001,Units=km,switch=T !numEQ NUMEQ:64153  - Data de conexão anterior06/2011.
new line.CTR133476 bus1=BMT125572465.3,bus2=BMT156247426.3,Phases=1,LineCode=tieSwitch1,Length=0.001,Units=km,switch=T !numEQ NUMEQ:64022  - Data de conexão anterior06/2011.
new line.CTR156555 bus1=BMT139583763.2,bus2=BMT179923240.2,Phases=1,LineCode=tieSwitch1,Length=0.001,Units=km,switch=T !numEQ NUMEQ:172159  - Data de conexão anterior06/2011.
new line.CTR156569 bus1=BMT125557716.2,bus2=BMT125557786.2,Phases=1,LineCode=tieSwitch1,Length=0.001,Units=km,switch=T !numEQ NUMEQ:64475  - Data de conexão anterior06/2011.
new line.CTR156590 bus1=BMT125583455.1.2.3,bus2=BMT161702494.1.2.3,Phases=3,LineCode=tieSwitch,Length=0.001,Units=km,switch=T !numEQ NUMEQ:173574  - Data de conexão anterior06/2011.
new line.CTR156632 bus1=BMT175121618.1.2.3,bus2=BMT5181092.1.2.3,Phases=3,LineCode=tieSwitch,Length=0.001,Units=km,switch=T !numEQ NUMEQ:174363
open line.CTR156632 term=1
new line.CTR156821 bus1=BMT166721284.1.2.3,bus2=BMT174027074.1.2.3,Phases=3,LineCode=tieSwitch,Length=0.001,Units=km,switch=T !numEQ NUMEQ:63310  - Data de conexão anterior06/2011.
new line.CTR157192 bus1=BMT125569567.2,bus2=BMT125571681.2,Phases=1,LineCode=tieSwitch1,Length=0.001,Units=km,switch=T !numEQ NUMEQ:214010  - Data de conexão anterior06/2011.
new line.CTR157703 bus1=BMT166720816.1,bus2=BMT183114553.1,Phases=1,LineCode=tieSwitch1,Length=0.001,Units=km,switch=T !numEQ NUMEQ:63951  - Data de conexão anterior06/2011.
new line.CTR167881 bus1=BMT164916198.2,bus2=BMT178198489.2,Phases=1,LineCode=tieSwitch1,Length=0.001,Units=km,switch=T !numEQ NUMEQ:103603
new line.CTR167888 bus1=BMT125555189.1.2.3,bus2=BMT152584766.1.2.3,Phases=3,LineCode=tieSwitch,Length=0.001,Units=km,switch=T !numEQ NUMEQ:104089  - Data de conexão anterior06/2011.
new line.CTR168119 bus1=BMT125584050.1.2.3,bus2=BMT125584064.1.2.3,Phases=3,LineCode=tieSwitch,Length=0.001,Units=km,switch=T !numEQ NUMEQ:137941  - Data de conexão anterior06/2011.
new line.CTR169127 bus1=BMT125569028.3,bus2=BMT125574782.3,Phases=1,LineCode=tieSwitch1,Length=0.001,Units=km,switch=T !numEQ NUMEQ:63950  - Data de conexão anterior06/2011.
new line.CTR178731 bus1=BMT125583119.1.2.3,bus2=BMT170506677.1.2.3,Phases=3,LineCode=tieSwitch,Length=0.001,Units=km,switch=T !numEQ NUMEQ:204813  - Data de conexão anterior06/2011.
new line.CTR179151 bus1=BMT151410882.1.2.3,bus2=BMT151410635.1.2.3,Phases=3,LineCode=tieSwitch,Length=0.001,Units=km,switch=T !numEQ NUMEQ:228553
new line.CTR179165 bus1=BMT125583966.1.2.3,bus2=BMT140582810.1.2.3,Phases=3,LineCode=tieSwitch,Length=0.001,Units=km,switch=T !numEQ NUMEQ:302759  - Data de conexão anterior06/2011.
new line.CTR179221 bus1=BMT166719885.2,bus2=BMT166719886.2,Phases=1,LineCode=tieSwitch1,Length=0.001,Units=km,switch=T !numEQ NUMEQ:138686  - Data de conexão anterior06/2011.
new line.CTR180537 bus1=BMT166719783.1.2.3,bus2=BMT166720709.1.2.3,Phases=3,LineCode=tieSwitch,Length=0.001,Units=km,switch=T !numEQ NUMEQ:172172  - Data de conexão anterior06/2011.
new line.CTR192318 bus1=BMT139478637.2,bus2=BMT177851248.2,Phases=1,LineCode=tieSwitch1,Length=0.001,Units=km,switch=T !numEQ NUMEQ:214114  - Data de conexão anterior06/2011.
new line.CTR192416 bus1=BMT125564366.3,bus2=BMT125564562.3,Phases=1,LineCode=tieSwitch1,Length=0.001,Units=km,switch=T !numEQ NUMEQ:64460  - Data de conexão anterior06/2011.
new line.CTR192899 bus1=BMT125568510.1,bus2=BMT182824333.1,Phases=1,LineCode=tieSwitch1,Length=0.001,Units=km,switch=T !numEQ NUMEQ:205571  - Data de conexão anterior06/2011.
new line.CTR31346 bus1=BMT166721131.3,bus2=BMT166721132.3,Phases=1,LineCode=tieSwitch1,Length=0.001,Units=km,switch=T !numEQ NUMEQ:79192  - Data de conexão anterior06/2011.
new line.CTR31458 bus1=BMT169893012.1.2.3,bus2=BMT173678117.1.2.3,Phases=3,LineCode=tieSwitch,Length=0.001,Units=km,switch=T !numEQ NUMEQ:62302
new line.CTR334893 bus1=BMT125568335.3,bus2=BMT125568468.3,Phases=1,LineCode=tieSwitch1,Length=0.001,Units=km,switch=T !numEQ NUMEQ:208163  - Data de conexão anterior06/2011.
new line.CTR33579 bus1=BMT169893003.1.2.3,bus2=BMT169893427.1.2.3,Phases=3,LineCode=tieSwitch,Length=0.001,Units=km,switch=T !numEQ NUMEQ:136804  - Data de conexão anterior06/2011.
new line.CTR336496 bus1=BMT125595110.3,bus2=BMT125595117.3,Phases=1,LineCode=tieSwitch1,Length=0.001,Units=km,switch=T !numEQ NUMEQ:227408  - Data de conexão anterior06/2011.
new line.CTR337553 bus1=BMT166720936.1.2.3,bus2=BMT180169922.1.2.3,Phases=3,LineCode=tieSwitch,Length=0.001,Units=km,switch=T !numEQ NUMEQ:221597  - Data de conexão anterior06/2011.
new line.CTR115290 bus1=BMT166719939.2,bus2=BMT166719942.2,Phases=1,LineCode=tieSwitch1,Length=0.001,Units=km,switch=T !numEQ NUMEQ:62648  - Data de conexão anterior06/2011.
new line.CTR115304 bus1=BMT125559711.2,bus2=BMT125560110.2,Phases=1,LineCode=tieSwitch1,Length=0.001,Units=km,switch=T !numEQ NUMEQ:195342  - Data de conexão anterior06/2011.
new line.CTR126658 bus1=BMT125567495.1,bus2=BMT179583961.1,Phases=1,LineCode=tieSwitch1,Length=0.001,Units=km,switch=T !numEQ NUMEQ:64441  - Data de conexão anterior06/2011.
new line.CTR126665 bus1=BMT125567558.1,bus2=BMT179583987.1,Phases=1,LineCode=tieSwitch1,Length=0.001,Units=km,switch=T !numEQ NUMEQ:62642  - Data de conexão anterior06/2011.
new line.CTR138621 bus1=BMT125584197.1.2.3,bus2=BMT173932191.1.2.3,Phases=3,LineCode=tieSwitch,Length=0.001,Units=km,switch=T !numEQ NUMEQ:65002
new line.CTR138719 bus1=BMT125583812.1.2.3,bus2=BMT173971578.1.2.3,Phases=3,LineCode=tieSwitch,Length=0.001,Units=km,switch=T !numEQ NUMEQ:177125
new line.CTR138726 bus1=BMT125583903.1,bus2=BMT125584701.1,Phases=1,LineCode=tieSwitch1,Length=0.001,Units=km,switch=T !numEQ NUMEQ:62329  - Data de conexão anterior06/2011.
new line.CTR138747 bus1=BMT125584246.1.2.3,bus2=BMT150345334.1.2.3,Phases=3,LineCode=tieSwitch,Length=0.001,Units=km,switch=T !numEQ NUMEQ:47255  - Data de conexão anterior06/2011.
new line.CTR138754 bus1=BMT173139944.1.2.3,bus2=BMT2563813.1.2.3,Phases=3,LineCode=tieSwitch,Length=0.001,Units=km,switch=T !numEQ NUMEQ:79790  - Data de conexão anterior06/2011.
open line.CTR138754 term=1
new line.CTR151473 bus1=BMT125577568.1.2.3,bus2=BMT174718771.1.2.3,Phases=3,LineCode=tieSwitch,Length=0.001,Units=km,switch=T !numEQ NUMEQ:62303
new line.CTR151487 bus1=BMT125577666.1.2.3,bus2=BMT172950321.1.2.3,Phases=3,LineCode=tieSwitch,Length=0.001,Units=km,switch=T !numEQ NUMEQ:259941  - Data de conexão anterior06/2011.
new line.CTR170310 bus1=BMT125570505.1.2.3,bus2=BMT183872216.1.2.3,Phases=3,LineCode=tieSwitch,Length=0.001,Units=km,switch=T !numEQ NUMEQ:44461  - Data de conexão anterior06/2011.
new line.CTR171136 bus1=BMT125583182.1.2.3,bus2=BMT125583189.1.2.3,Phases=3,LineCode=tieSwitch,Length=0.001,Units=km,switch=T !numEQ NUMEQ:205555  - Data de conexão anterior06/2011.
new line.CTR180712 bus1=BMT125593556.1.2.3,bus2=BMT125594403.1.2.3,Phases=3,LineCode=tieSwitch,Length=0.001,Units=km,switch=T !numEQ NUMEQ:172728  - Data de conexão anterior06/2011.
new line.CTR181272 bus1=BMT125569623.1,bus2=BMT125571583.1,Phases=1,LineCode=tieSwitch1,Length=0.001,Units=km,switch=T !numEQ NUMEQ:171989  - Data de conexão anterior06/2011.
new line.CTR181650 bus1=BMT166719843.2,bus2=BMT166719853.2,Phases=1,LineCode=tieSwitch1,Length=0.001,Units=km,switch=T !numEQ NUMEQ:45381  - Data de conexão anterior06/2011.
new line.CTR181797 bus1=BMT125578569.1.2.3,bus2=BMT125578632.1.2.3,Phases=3,LineCode=tieSwitch,Length=0.001,Units=km,switch=T !numEQ NUMEQ:173890  - Data de conexão anterior06/2011.
new line.CTR182035 bus1=BMT166720360.1,bus2=BMT167936553.1,Phases=1,LineCode=tieSwitch1,Length=0.001,Units=km,switch=T !numEQ NUMEQ:171900
new line.CTR182147 bus1=BMT154104155.1.2.3,bus2=BMT154104215.1.2.3,Phases=3,LineCode=tieSwitch,Length=0.001,Units=km,switch=T !numEQ NUMEQ:63601  - Data de conexão anterior06/2011.
new line.CTR194558 bus1=BMT125579416.3,bus2=BMT125580662.3,Phases=1,LineCode=tieSwitch1,Length=0.001,Units=km,switch=T !numEQ NUMEQ:203833
new line.CTR194775 bus1=BMT125573039.3,bus2=BMT125573109.3,Phases=1,LineCode=tieSwitch1,Length=0.001,Units=km,switch=T !numEQ NUMEQ:213976  - Data de conexão anterior06/2011.
new line.CTR194782 bus1=BMT166720272.1,bus2=BMT166720275.1,Phases=1,LineCode=tieSwitch1,Length=0.001,Units=km,switch=T !numEQ NUMEQ:208436  - Data de conexão anterior06/2011.
new line.CTR194845 bus1=BMT125581047.3,bus2=BMT125582370.3,Phases=1,LineCode=tieSwitch1,Length=0.001,Units=km,switch=T !numEQ NUMEQ:203830  - Data de conexão anterior06/2011.
new line.CTR195048 bus1=BMT166719763.1.2.3,bus2=BMT166719764.1.2.3,Phases=3,LineCode=tieSwitch,Length=0.001,Units=km,switch=T !numEQ NUMEQ:227454  - Data de conexão anterior06/2011.
new line.CTR19537 bus1=BMT125574110.2,bus2=BMT125574194.2,Phases=1,LineCode=tieSwitch1,Length=0.001,Units=km,switch=T !numEQ NUMEQ:101725  - Data de conexão anterior06/2011.
new line.CTR195741 bus1=BMT125567362.1,bus2=BMT179583911.1,Phases=1,LineCode=tieSwitch1,Length=0.001,Units=km,switch=T !numEQ NUMEQ:228692  - Data de conexão anterior06/2011.
new line.CTR195755 bus1=BMT125583168.1.2.3,bus2=BMT125583259.1.2.3,Phases=3,LineCode=tieSwitch,Length=0.001,Units=km,switch=T !numEQ NUMEQ:227290  - Data de conexão anterior06/2011.
new line.CTR23646 bus1=BMT166719782.1.2.3,bus2=BMT166720711.1.2.3,Phases=3,LineCode=tieSwitch,Length=0.001,Units=km,switch=T !numEQ NUMEQ:239457  - Data de conexão anterior06/2011.
new line.CTR25396 bus1=BMT125572479.3,bus2=BMT125572493.3,Phases=1,LineCode=tieSwitch1,Length=0.001,Units=km,switch=T !numEQ NUMEQ:64140  - Data de conexão anterior06/2011.
new line.CTR327466 bus1=BMT125583399.1.2.3,bus2=BMT172674004.1.2.3,Phases=3,LineCode=tieSwitch,Length=0.001,Units=km,switch=T !numEQ NUMEQ:282240  - Data de conexão anterior06/2011.
new line.CTR32914 bus1=BMT125577848.1.2.3,bus2=BMT125583679.1.2.3,Phases=3,LineCode=tieSwitch,Length=0.001,Units=km,switch=T !numEQ NUMEQ:126983  - Data de conexão anterior06/2011.
new line.CTR34321 bus1=BMT125560194.1.2.3,bus2=BMT125560201.1.2.3,Phases=3,LineCode=tieSwitch,Length=0.001,Units=km,switch=T !numEQ NUMEQ:106765  - Data de conexão anterior06/2011.
new line.CTR34384 bus1=BMT125570582.1.2.3,bus2=BMT125570617.1.2.3,Phases=3,LineCode=tieSwitch,Length=0.001,Units=km,switch=T !numEQ NUMEQ:47438  - Data de conexão anterior06/2011.
new line.CTR344882 bus1=BMT125556246.1.2.3,bus2=BMT174012984.1.2.3,Phases=3,LineCode=tieSwitch,Length=0.001,Units=km,switch=T !numEQ NUMEQ:221625  - Data de conexão anterior06/2011.
new line.CTR369368 bus1=BMT154575568.1.2.3,bus2=BMT125578030.1.2.3,Phases=3,LineCode=tieSwitch,Length=0.001,Units=km,switch=T !numEQ NUMEQ:287332
open line.CTR369368 term=1
new line.CTR370215 bus1=BMT173733878.1.2.3,bus2=BMT173733893.1.2.3,Phases=3,LineCode=tieSwitch,Length=0.001,Units=km,switch=T !numEQ NUMEQ:230516
new line.CTR408365 bus1=BMT158054787.1.2.3,bus2=BMT164936022.1.2.3,Phases=3,LineCode=tieSwitch,Length=0.001,Units=km,switch=T !numEQ NUMEQ:297944  - Data de conexão anterior06/2011.
new line.CTR408407 bus1=BMT132626211.1.2.3,bus2=BMT132626218.1.2.3,Phases=3,LineCode=tieSwitch,Length=0.001,Units=km,switch=T !numEQ NUMEQ:297943  - Data de conexão anterior06/2011.
new line.CTR410150 bus1=BMT133023356.2,bus2=BMT183059599.2,Phases=1,LineCode=tieSwitch1,Length=0.001,Units=km,switch=T !numEQ NUMEQ:228791  - Data de conexão anterior06/2011.
new line.CTR410171 bus1=BMT166719807.1.2.3,bus2=BMT173932187.1.2.3,Phases=3,LineCode=tieSwitch,Length=0.001,Units=km,switch=T !numEQ NUMEQ:230652
new line.CTR410353 bus1=BMT133091669.2,bus2=BMT141287143.2,Phases=1,LineCode=tieSwitch1,Length=0.001,Units=km,switch=T !numEQ NUMEQ:299522  - Data de conexão anterior06/2011.
new line.CTR411214 bus1=BMT144380849.1.2.3,bus2=BMT133234189.1.2.3,Phases=3,LineCode=tieSwitch,Length=0.001,Units=km,switch=T !numEQ NUMEQ:305023
new line.CTR411221 bus1=BMT133234623.1.2.3,bus2=BMT173414123.1.2.3,Phases=3,LineCode=tieSwitch,Length=0.001,Units=km,switch=T !numEQ NUMEQ:305021  - Data de conexão anterior06/2011.
new line.CTR411242 bus1=BMT140582768.1.2.3,bus2=BMT140582775.1.2.3,Phases=3,LineCode=tieSwitch,Length=0.001,Units=km,switch=T !numEQ NUMEQ:302761  - Data de conexão anterior06/2011.
new line.CTR411249 bus1=BMT140582824.1.2.3,bus2=BMT140582831.1.2.3,Phases=3,LineCode=tieSwitch,Length=0.001,Units=km,switch=T !numEQ NUMEQ:302760  - Data de conexão anterior06/2011.
new line.CTR411578 bus1=BMT166721043.2,bus2=BMT166721047.2,Phases=1,LineCode=tieSwitch1,Length=0.001,Units=km,switch=T !numEQ NUMEQ:297945
new line.CTR43568 bus1=BMT125577533.1.2.3,bus2=BMT174923373.1.2.3,Phases=3,LineCode=tieSwitch,Length=0.001,Units=km,switch=T !numEQ NUMEQ:62301
new line.CTR106141 bus1=BMT125570071.2,bus2=BMT174223589.2,Phases=1,LineCode=tieSwitch1,Length=0.001,Units=km,switch=T !numEQ NUMEQ:173938  - Data de conexão anterior06/2011.
new line.CTR117579 bus1=BMT125555602.1,bus2=BMT178274872.1,Phases=1,LineCode=tieSwitch1,Length=0.001,Units=km,switch=T !numEQ NUMEQ:174950
new line.CTR147560 bus1=BMT125562476.3,bus2=BMT158673182.3,Phases=1,LineCode=tieSwitch1,Length=0.001,Units=km,switch=T !numEQ NUMEQ:100760  - Data de conexão anterior06/2011.
new line.CTR148092 bus1=BMT125561069.1.2.3,bus2=BMT171274923.1.2.3,Phases=3,LineCode=tieSwitch,Length=0.001,Units=km,switch=T !numEQ NUMEQ:131206  - Data de conexão anterior06/2011.
new line.CTR154028 bus1=BMT125591253.3,bus2=BMT125591477.3,Phases=1,LineCode=tieSwitch1,Length=0.001,Units=km,switch=T !numEQ NUMEQ:174725  - Data de conexão anterior06/2011.
new line.CTR154084 bus1=BMT166721285.1.2.3,bus2=BMT166721312.1.2.3,Phases=3,LineCode=tieSwitch,Length=0.001,Units=km,switch=T !numEQ NUMEQ:173875  - Data de conexão anterior06/2011.
new line.CTR154350 bus1=BMT125593563.1.2.3,bus2=BMT182167909.1.2.3,Phases=3,LineCode=tieSwitch,Length=0.001,Units=km,switch=T !numEQ NUMEQ:79175  - Data de conexão anterior06/2011.
new line.CTR154434 bus1=BMT169893226.1.2.3,bus2=BMT169893228.1.2.3,Phases=3,LineCode=tieSwitch,Length=0.001,Units=km,switch=T !numEQ NUMEQ:45217  - Data de conexão anterior06/2011.
new line.CTR154525 bus1=BMT125563113.2,bus2=BMT125564961.2,Phases=1,LineCode=tieSwitch1,Length=0.001,Units=km,switch=T !numEQ NUMEQ:64446  - Data de conexão anterior06/2011.
new line.CTR154854 bus1=BMT125591043.1.2.3,bus2=BMT170617648.1.2.3,Phases=3,LineCode=tieSwitch,Length=0.001,Units=km,switch=T !numEQ NUMEQ:173238  - Data de conexão anterior06/2011.
new line.CTR155029 bus1=BMT125564051.3,bus2=BMT125564065.3,Phases=1,LineCode=tieSwitch1,Length=0.001,Units=km,switch=T !numEQ NUMEQ:207347  - Data de conexão anterior06/2011.
new line.CTR166236 bus1=BMT166720868.1,bus2=BMT166721377.1,Phases=1,LineCode=tieSwitch1,Length=0.001,Units=km,switch=T !numEQ NUMEQ:62983  - Data de conexão anterior06/2011.
new line.CTR167314 bus1=BMT125578387.1.2.3,bus2=BMT125578485.1.2.3,Phases=3,LineCode=tieSwitch,Length=0.001,Units=km,switch=T !numEQ NUMEQ:103650  - Data de conexão anterior06/2011.
new line.CTR184450 bus1=BMT166720763.1.2.3,bus2=BMT183098758.1.2.3,Phases=3,LineCode=tieSwitch,Length=0.001,Units=km,switch=T !numEQ NUMEQ:174529  - Data de conexão anterior06/2011.
new line.CTR184562 bus1=BMT125593045.2,bus2=BMT168916940.2,Phases=1,LineCode=tieSwitch1,Length=0.001,Units=km,switch=T !numEQ NUMEQ:277749
new line.CTR184716 bus1=BMT125579780.1,bus2=BMT177503959.1,Phases=1,LineCode=tieSwitch1,Length=0.001,Units=km,switch=T !numEQ NUMEQ:79181  - Data de conexão anterior06/2011.
new line.CTR185031 bus1=BMT125579570.1.2.3,bus2=BMT125580186.1.2.3,Phases=3,LineCode=tieSwitch,Length=0.001,Units=km,switch=T !numEQ NUMEQ:64474  - Data de conexão anterior06/2011.
new line.CTR193858 bus1=BMT125593332.2,bus2=BMT168916910.2,Phases=1,LineCode=tieSwitch1,Length=0.001,Units=km,switch=T !numEQ NUMEQ:213897  - Data de conexão anterior06/2011.
new line.CTR194103 bus1=BMT125580291.2,bus2=BMT125580305.2,Phases=1,LineCode=tieSwitch1,Length=0.001,Units=km,switch=T !numEQ NUMEQ:213265  - Data de conexão anterior06/2011.
new line.CTR26075 bus1=BMT152584769.1.2.3,bus2=BMT152584771.1.2.3,Phases=3,LineCode=tieSwitch,Length=0.001,Units=km,switch=T !numEQ NUMEQ:63992  - Data de conexão anterior06/2011.
new line.CTR26082 bus1=BMT125555049.3,bus2=BMT125555077.3,Phases=1,LineCode=tieSwitch1,Length=0.001,Units=km,switch=T !numEQ NUMEQ:63138  - Data de conexão anterior06/2011.
new line.CTR29876 bus1=BMT172763181.1.2.3,bus2=BMT125555518.1.2.3,Phases=3,LineCode=tieSwitch,Length=0.001,Units=km,switch=T !numEQ NUMEQ:63914  - Data de conexão anterior06/2011.
new line.CTR32998 bus1=BMT125563274.1,bus2=BMT125564786.1,Phases=1,LineCode=tieSwitch1,Length=0.001,Units=km,switch=T !numEQ NUMEQ:63633  - Data de conexão anterior06/2011.
new line.CTR330546 bus1=BMT181382125.1.2.3,bus2=BMT166720040.1.2.3,Phases=3,LineCode=tieSwitch,Length=0.001,Units=km,switch=T !numEQ NUMEQ:221586
new line.CTR346520 bus1=BMT125580704.3,bus2=BMT177104625.3,Phases=1,LineCode=tieSwitch1,Length=0.001,Units=km,switch=T !numEQ NUMEQ:221589  - Data de conexão anterior06/2011.
new line.CTR346625 bus1=BMT125564919.1,bus2=BMT125564933.1,Phases=1,LineCode=tieSwitch1,Length=0.001,Units=km,switch=T !numEQ NUMEQ:283569  - Data de conexão anterior06/2011.
new line.CTR347269 bus1=BMT125582608.2,bus2=BMT177650060.2,Phases=1,LineCode=tieSwitch1,Length=0.001,Units=km,switch=T !numEQ NUMEQ:285907  - Data de conexão anterior06/2011.
new line.CTR373729 bus1=BMT172154874.3,bus2=BMT172154902.3,Phases=1,LineCode=tieSwitch1,Length=0.001,Units=km,switch=T !numEQ NUMEQ:292366  - Data de conexão anterior06/2011.
new line.CTR414791 bus1=BMT171199942.2,bus2=BMT171199952.2,Phases=1,LineCode=tieSwitch1,Length=0.001,Units=km,switch=T !numEQ NUMEQ:291270  - Data de conexão anterior06/2011.
new line.CTR43302 bus1=BMT125578534.1.2.3,bus2=BMT125578541.1.2.3,Phases=3,LineCode=tieSwitch,Length=0.001,Units=km,switch=T !numEQ NUMEQ:45215  - Data de conexão anterior06/2011.
new line.CTR43309 bus1=BMT125578086.1.2.3,bus2=BMT125578093.1.2.3,Phases=3,LineCode=tieSwitch,Length=0.001,Units=km,switch=T !numEQ NUMEQ:62312
open line.CTR43309 term=1
new line.CTR43316 bus1=BMT175363520.1.2.3,bus2=BMT2563001.1.2.3,Phases=3,LineCode=tieSwitch,Length=0.001,Units=km,switch=T !numEQ NUMEQ:62612  - Data de conexão anterior06/2011.
open line.CTR43316 term=1
new line.CTR43379 bus1=BMT174304752.1.2.3,bus2=BMT174304754.1.2.3,Phases=3,LineCode=tieSwitch,Length=0.001,Units=km,switch=T !numEQ NUMEQ:62313
new line.CTR43386 bus1=BMT125578226.1.2.3,bus2=BMT125578233.1.2.3,Phases=3,LineCode=tieSwitch,Length=0.001,Units=km,switch=T !numEQ NUMEQ:62311  - Data de conexão anterior06/2011.
new line.CTR43414 bus1=BMT125583091.1.2.3,bus2=BMT161717356.1.2.3,Phases=3,LineCode=tieSwitch,Length=0.001,Units=km,switch=T !numEQ NUMEQ:143523  - Data de conexão anterior06/2011.
new line.CTR43421 bus1=BMT168758360.1.2.3,bus2=BMT175099767.1.2.3,Phases=3,LineCode=tieSwitch,Length=0.001,Units=km,switch=T !numEQ NUMEQ:265769
new line.CTR43428 bus1=BMT138856869.1.2.3,bus2=BMT138960462.1.2.3,Phases=3,LineCode=tieSwitch,Length=0.001,Units=km,switch=T !numEQ NUMEQ:306130  - Data de conexão anterior06/2011.
new line.CTR43435 bus1=BMT125583112.1.2.3,bus2=BMT170435260.1.2.3,Phases=3,LineCode=tieSwitch,Length=0.001,Units=km,switch=T !numEQ NUMEQ:143552  - Data de conexão anterior06/2011.
new line.CTR43442 bus1=BMT183829891.1.2.3,bus2=BMT183830128.1.2.3,Phases=3,LineCode=tieSwitch,Length=0.001,Units=km,switch=T !numEQ NUMEQ:47982  - Data de conexão anterior06/2011.
new line.CTR43449 bus1=BMT125579241.1.2.3,bus2=BMT183733261.1.2.3,Phases=3,LineCode=tieSwitch,Length=0.001,Units=km,switch=T !numEQ NUMEQ:47882  - Data de conexão anterior06/2011.
new line.CTR43463 bus1=BMT175099627.1.2.3,bus2=BMT175100503.1.2.3,Phases=3,LineCode=tieSwitch,Length=0.001,Units=km,switch=T !numEQ NUMEQ:305133
new line.CTR43470 bus1=BMT125578282.1.2.3,bus2=BMT125578884.1.2.3,Phases=3,LineCode=tieSwitch,Length=0.001,Units=km,switch=T !numEQ NUMEQ:173435  - Data de conexão anterior06/2011.
new line.CTR43477 bus1=BMT125580242.2,bus2=BMT161675098.2,Phases=1,LineCode=tieSwitch1,Length=0.001,Units=km,switch=T !numEQ NUMEQ:63486  - Data de conexão anterior06/2011.
new line.CTR43491 bus1=BMT125579836.1,bus2=BMT177503982.1,Phases=1,LineCode=tieSwitch1,Length=0.001,Units=km,switch=T !numEQ NUMEQ:63292  - Data de conexão anterior06/2011.
new line.CTR43498 bus1=BMT125579934.1,bus2=BMT177503984.1,Phases=1,LineCode=tieSwitch1,Length=0.001,Units=km,switch=T !numEQ NUMEQ:62613  - Data de conexão anterior06/2011.
new line.CTR43505 bus1=BMT125579955.1,bus2=BMT177503994.1,Phases=1,LineCode=tieSwitch1,Length=0.001,Units=km,switch=T !numEQ NUMEQ:64080  - Data de conexão anterior06/2011.
new line.CTR43512 bus1=BMT125579353.1.2.3,bus2=BMT182643035.1.2.3,Phases=3,LineCode=tieSwitch,Length=0.001,Units=km,switch=T !numEQ NUMEQ:252715
new line.CTR435147 bus1=BMT139464189.1.2.3,bus2=BMT148329123.1.2.3,Phases=3,LineCode=tieSwitch,Length=0.001,Units=km,switch=T !numEQ NUMEQ:201359  - Data de conexão anterior06/2011.
new line.CTR185416 bus1=BMT125554979.1.2.3,bus2=BMT152067862.1.2.3,Phases=3,LineCode=tieSwitch,Length=0.001,Units=km,switch=T !numEQ NUMEQ:64067
new line.CTR186130 bus1=BMT125584274.1.2.3,bus2=BMT125584344.1.2.3,Phases=3,LineCode=tieSwitch,Length=0.001,Units=km,switch=T !numEQ NUMEQ:201344  - Data de conexão anterior06/2011.
new line.CTR1960 bus1=BMT125577575.1.2.3,bus2=BMT170575930.1.2.3,Phases=3,LineCode=tieSwitch,Length=0.001,Units=km,switch=T !numEQ NUMEQ:126985  - Data de conexão anterior06/2011.
new line.CTR196602 bus1=BMT125578394.1.2.3,bus2=BMT180415088.1.2.3,Phases=3,LineCode=tieSwitch,Length=0.001,Units=km,switch=T !numEQ NUMEQ:228811  - Data de conexão anterior06/2011.
new line.CTR1967 bus1=BMT169893395.1.2.3,bus2=BMT169893030.1.2.3,Phases=3,LineCode=tieSwitch,Length=0.001,Units=km,switch=T !numEQ NUMEQ:312382  - Data de conexão anterior06/2011.
open line.CTR1967 term=1
new line.CTR2233 bus1=BMT169893317.1.2.3,bus2=BMT174924961.1.2.3,Phases=3,LineCode=tieSwitch,Length=0.001,Units=km,switch=T !numEQ NUMEQ:239078  - Data de conexão anterior06/2011.
new line.CTR2240 bus1=BMT169893258.1.2.3,bus2=BMT177722541.1.2.3,Phases=3,LineCode=tieSwitch,Length=0.001,Units=km,switch=T !numEQ NUMEQ:263152
new line.CTR24955 bus1=BMT169893156.1.2.3,bus2=BMT177722388.1.2.3,Phases=3,LineCode=tieSwitch,Length=0.001,Units=km,switch=T !numEQ NUMEQ:62126  - Data de conexão anterior06/2011.
new line.CTR27391 bus1=BMT125563428.3,bus2=BMT125563890.3,Phases=1,LineCode=tieSwitch1,Length=0.001,Units=km,switch=T !numEQ NUMEQ:64253  - Data de conexão anterior06/2011.
new line.CTR29491 bus1=BMT125563316.1,bus2=BMT125564709.1,Phases=1,LineCode=tieSwitch1,Length=0.001,Units=km,switch=T !numEQ NUMEQ:64456  - Data de conexão anterior06/2011.
new line.CTR29505 bus1=BMT125563386.1,bus2=BMT125564646.1,Phases=1,LineCode=tieSwitch1,Length=0.001,Units=km,switch=T !numEQ NUMEQ:63872  - Data de conexão anterior06/2011.
new line.CTR29519 bus1=BMT125563393.3,bus2=BMT139546327.3,Phases=1,LineCode=tieSwitch1,Length=0.001,Units=km,switch=T !numEQ NUMEQ:301794  - Data de conexão anterior06/2011.
new line.CTR29526 bus1=BMT125564037.3,bus2=BMT175398985.3,Phases=1,LineCode=tieSwitch1,Length=0.001,Units=km,switch=T !numEQ NUMEQ:63976  - Data de conexão anterior06/2011.
new line.CTR29533 bus1=BMT125564457.3,bus2=BMT180953874.3,Phases=1,LineCode=tieSwitch1,Length=0.001,Units=km,switch=T !numEQ NUMEQ:63896  - Data de conexão anterior06/2011.
new line.CTR29540 bus1=BMT125564730.1,bus2=BMT125564737.1,Phases=1,LineCode=tieSwitch1,Length=0.001,Units=km,switch=T !numEQ NUMEQ:63816
new line.CTR29589 bus1=BMT125554965.1.2.3,bus2=BMT125561916.1.2.3,Phases=3,LineCode=tieSwitch,Length=0.001,Units=km,switch=T !numEQ NUMEQ:62894  - Data de conexão anterior06/2011.
new line.CTR29757 bus1=BMT125556106.1.2.3,bus2=BMT178805299.1.2.3,Phases=3,LineCode=tieSwitch,Length=0.001,Units=km,switch=T !numEQ NUMEQ:62177
new line.CTR29764 bus1=BMT125557660.2,bus2=BMT182841157.2,Phases=1,LineCode=tieSwitch1,Length=0.001,Units=km,switch=T !numEQ NUMEQ:62167  - Data de conexão anterior06/2011.
new line.CTR29792 bus1=BMT125557674.2,bus2=BMT167136107.2,Phases=1,LineCode=tieSwitch1,Length=0.001,Units=km,switch=T !numEQ NUMEQ:63531  - Data de conexão anterior06/2011.
new line.CTR29827 bus1=BMT125556414.1,bus2=BMT177808375.1,Phases=1,LineCode=tieSwitch1,Length=0.001,Units=km,switch=T !numEQ NUMEQ:90997  - Data de conexão anterior06/2011.
new line.CTR29834 bus1=BMT125556666.1,bus2=BMT180691182.1,Phases=1,LineCode=tieSwitch1,Length=0.001,Units=km,switch=T !numEQ NUMEQ:63066  - Data de conexão anterior06/2011.
new line.CTR29841 bus1=BMT125556519.1,bus2=BMT179361297.1,Phases=1,LineCode=tieSwitch1,Length=0.001,Units=km,switch=T !numEQ NUMEQ:90998  - Data de conexão anterior06/2011.
new line.CTR29848 bus1=BMT125555868.1.2.3,bus2=BMT125555889.1.2.3,Phases=3,LineCode=tieSwitch,Length=0.001,Units=km,switch=T !numEQ NUMEQ:63011  - Data de conexão anterior06/2011.
new line.CTR29855 bus1=BMT125555819.1.2.3,bus2=BMT144380821.1.2.3,Phases=3,LineCode=tieSwitch,Length=0.001,Units=km,switch=T !numEQ NUMEQ:305020  - Data de conexão anterior06/2011.
new line.CTR35588 bus1=BMT125570099.1.2.3,bus2=BMT150345330.1.2.3,Phases=3,LineCode=tieSwitch,Length=0.001,Units=km,switch=T !numEQ NUMEQ:175228  - Data de conexão anterior06/2011.
new line.CTR37912 bus1=BMT170186260.1.2.3,bus2=BMT154660997.1.2.3,Phases=3,LineCode=tieSwitch,Length=0.001,Units=km,switch=T !numEQ NUMEQ:62101  - Data de conexão anterior06/2011.
open line.CTR37912 term=1
new line.CTR4074 bus1=BMT125592044.1.2.3,bus2=BMT175199546.1.2.3,Phases=3,LineCode=tieSwitch,Length=0.001,Units=km,switch=T !numEQ NUMEQ:375427  - Data de conexão anterior06/2011.
new line.CTR43064 bus1=BMT125578422.1.2.3,bus2=BMT152707734.1.2.3,Phases=3,LineCode=tieSwitch,Length=0.001,Units=km,switch=T !numEQ NUMEQ:62325  - Data de conexão anterior06/2011.
new line.CTR431584 bus1=BMT138740816.1.2.3,bus2=BMT138740823.1.2.3,Phases=3,LineCode=tieSwitch,Length=0.001,Units=km,switch=T !numEQ NUMEQ:308644  - Data de conexão anterior06/2011.
new line.CTR431759 bus1=BMT169893324.1.2.3,bus2=BMT169893325.1.2.3,Phases=3,LineCode=tieSwitch,Length=0.001,Units=km,switch=T !numEQ NUMEQ:299496  - Data de conexão anterior06/2011.
new line.CTR43225 bus1=BMT125580893.3,bus2=BMT183927421.3,Phases=1,LineCode=tieSwitch1,Length=0.001,Units=km,switch=T !numEQ NUMEQ:63024  - Data de conexão anterior06/2011.
new line.CTR43253 bus1=BMT125581208.3,bus2=BMT125582272.3,Phases=1,LineCode=tieSwitch1,Length=0.001,Units=km,switch=T !numEQ NUMEQ:63348  - Data de conexão anterior06/2011.
new line.CTR43260 bus1=BMT125577673.1.2.3,bus2=BMT180977870.1.2.3,Phases=3,LineCode=tieSwitch,Length=0.001,Units=km,switch=T !numEQ NUMEQ:47475  - Data de conexão anterior06/2011.
new line.CTR432872 bus1=BMT166719775.1.2.3,bus2=BMT170631822.1.2.3,Phases=3,LineCode=tieSwitch,Length=0.001,Units=km,switch=T !numEQ NUMEQ:309623  - Data de conexão anterior06/2011.
new line.CTR43288 bus1=BMT152707726.1.2.3,bus2=BMT149744751.1.2.3,Phases=3,LineCode=tieSwitch,Length=0.001,Units=km,switch=T !numEQ NUMEQ:306129  - Data de conexão anterior06/2011.
open line.CTR43288 term=1
new line.CTR44863 bus1=BMT166720019.2,bus2=BMT166720629.2,Phases=1,LineCode=tieSwitch1,Length=0.001,Units=km,switch=T !numEQ NUMEQ:301907  - Data de conexão anterior06/2011.
new line.CTR44877 bus1=BMT166720025.1.2.3,bus2=BMT166720617.1.2.3,Phases=3,LineCode=tieSwitch,Length=0.001,Units=km,switch=T !numEQ NUMEQ:269112  - Data de conexão anterior06/2011.
new line.CTR44884 bus1=BMT166720030.3,bus2=BMT166720600.3,Phases=1,LineCode=tieSwitch1,Length=0.001,Units=km,switch=T !numEQ NUMEQ:239427  - Data de conexão anterior06/2011.
new line.CTR44891 bus1=BMT166720031.1.2.3,bus2=BMT174756700.1.2.3,Phases=3,LineCode=tieSwitch,Length=0.001,Units=km,switch=T !numEQ NUMEQ:239428  - Data de conexão anterior06/2011.
new line.CTR44905 bus1=BMT166720057.1.2.3,bus2=BMT182116973.1.2.3,Phases=3,LineCode=tieSwitch,Length=0.001,Units=km,switch=T !numEQ NUMEQ:239434  - Data de conexão anterior06/2011.
new line.CTR44912 bus1=BMT166720063.1,bus2=BMT179882974.1,Phases=1,LineCode=tieSwitch1,Length=0.001,Units=km,switch=T !numEQ NUMEQ:380055
new line.CTR44919 bus1=BMT166720069.1.2.3,bus2=BMT167074793.1.2.3,Phases=3,LineCode=tieSwitch,Length=0.001,Units=km,switch=T !numEQ NUMEQ:239438  - Data de conexão anterior06/2011.
new line.CTR44926 bus1=BMT166720072.3,bus2=BMT166720263.3,Phases=1,LineCode=tieSwitch1,Length=0.001,Units=km,switch=T !numEQ NUMEQ:239440  - Data de conexão anterior06/2011.
new line.CTR44933 bus1=BMT166720088.1.2.3,bus2=BMT180595432.1.2.3,Phases=3,LineCode=tieSwitch,Length=0.001,Units=km,switch=T !numEQ NUMEQ:239443  - Data de conexão anterior06/2011.
new line.CTR44940 bus1=BMT166720141.1.2.3,bus2=BMT172648500.1.2.3,Phases=3,LineCode=tieSwitch,Length=0.001,Units=km,switch=T !numEQ NUMEQ:244256  - Data de conexão anterior06/2011.
new line.CTR44947 bus1=BMT166720142.1.2.3,bus2=BMT168676003.1.2.3,Phases=3,LineCode=tieSwitch,Length=0.001,Units=km,switch=T !numEQ NUMEQ:382051  - Data de conexão anterior06/2011.
new line.CTR450561 bus1=BMT166719922.2,bus2=BMT166719936.2,Phases=1,LineCode=tieSwitch1,Length=0.001,Units=km,switch=T !numEQ NUMEQ:302629
new line.CTR45101 bus1=BMT166719774.1.2.3,bus2=BMT173728662.1.2.3,Phases=3,LineCode=tieSwitch,Length=0.001,Units=km,switch=T !numEQ NUMEQ:373503  - Data de conexão anterior06/2011.
new line.CTR122290 bus1=BMT169893153.1.2.3,bus2=BMT169893200.1.2.3,Phases=3,LineCode=tieSwitch,Length=0.001,Units=km,switch=T !numEQ NUMEQ:62124  - Data de conexão anterior06/2011.
new line.CTR130249 bus1=BMT166721273.1.2.3,bus2=BMT178123676.1.2.3,Phases=3,LineCode=tieSwitch,Length=0.001,Units=km,switch=T !numEQ NUMEQ:380052  - Data de conexão anterior06/2011.
new line.CTR130809 bus1=BMT125569700.1,bus2=BMT125571422.1,Phases=1,LineCode=tieSwitch1,Length=0.001,Units=km,switch=T !numEQ NUMEQ:171996  - Data de conexão anterior06/2011.
new line.CTR131054 bus1=BMT125560152.2,bus2=BMT125560159.2,Phases=1,LineCode=tieSwitch1,Length=0.001,Units=km,switch=T !numEQ NUMEQ:196727  - Data de conexão anterior06/2011.
new line.CTR142170 bus1=BMT125578702.1.2.3,bus2=BMT161988898.1.2.3,Phases=3,LineCode=tieSwitch,Length=0.001,Units=km,switch=T !numEQ NUMEQ:127486  - Data de conexão anterior06/2011.
new line.CTR142555 bus1=BMT125562700.2,bus2=BMT125565213.2,Phases=1,LineCode=tieSwitch1,Length=0.001,Units=km,switch=T !numEQ NUMEQ:125283  - Data de conexão anterior06/2011.
new line.CTR153496 bus1=BMT125569952.1.2.3,bus2=BMT125570862.1.2.3,Phases=3,LineCode=tieSwitch,Length=0.001,Units=km,switch=T !numEQ NUMEQ:47320  - Data de conexão anterior06/2011.
new line.CTR153741 bus1=BMT166719915.2,bus2=BMT177134885.2,Phases=1,LineCode=tieSwitch1,Length=0.001,Units=km,switch=T !numEQ NUMEQ:255449  - Data de conexão anterior06/2011.
new line.CTR175700 bus1=BMT166721164.1.2.3,bus2=BMT177267632.1.2.3,Phases=3,LineCode=tieSwitch,Length=0.001,Units=km,switch=T !numEQ NUMEQ:195329  - Data de conexão anterior06/2011.
new line.CTR175889 bus1=BMT175949113.1,bus2=BMT175949120.1,Phases=1,LineCode=tieSwitch1,Length=0.001,Units=km,switch=T !numEQ NUMEQ:239430  - Data de conexão anterior06/2011.
new line.CTR176015 bus1=BMT125572745.3,bus2=BMT125572794.3,Phases=1,LineCode=tieSwitch1,Length=0.001,Units=km,switch=T !numEQ NUMEQ:171743  - Data de conexão anterior06/2011.
new line.CTR176106 bus1=BMT125569161.1.2.3,bus2=BMT125569364.1.2.3,Phases=3,LineCode=tieSwitch,Length=0.001,Units=km,switch=T !numEQ NUMEQ:62140  - Data de conexão anterior06/2011.
new line.CTR176281 bus1=BMT125562098.1,bus2=BMT125562133.1,Phases=1,LineCode=tieSwitch1,Length=0.001,Units=km,switch=T !numEQ NUMEQ:63490  - Data de conexão anterior06/2011.
...