2024_89_CemigReconfigurationCases/1_SEsCemig/SRS02/SRS02Reguladores.dss
new transformer.RT105-1 Phases=1,windings=2,buses=[BMT125568678.1.0 BMT181104691.1.0],conns=[LN LN],kvs=[7.967 7.967],kvas=[1000.000000000 1000.000000000],xhl=0.700000000,%loadloss=0.200000000,%noloadloss=0.0419
new RegControl.RC105-1 transformer=RT105-1,winding=2,PTphase=1,ptratio=66.4,band=3,vreg=123,revNeutral=Yes  ! NUMEQ:47400
new transformer.RT105-2 Phases=1,windings=2,buses=[BMT125568678.2.0 BMT181104691.2.0],conns=[LN LN],kvs=[7.967 7.967],kvas=[1000.000000000 1000.000000000],xhl=0.700000000,%loadloss=0.200000000,%noloadloss=0.0419
new RegControl.RC105-2 transformer=RT105-2,winding=2,PTphase=1,ptratio=66.4,band=3,vreg=123,revNeutral=Yes  ! NUMEQ:47400
new transformer.RT105-3 Phases=1,windings=2,buses=[BMT125568678.3.0 BMT181104691.3.0],conns=[LN LN],kvs=[7.967 7.967],kvas=[1000.000000000 1000.000000000],xhl=0.700000000,%loadloss=0.200000000,%noloadloss=0.0419
new RegControl.RC105-3 transformer=RT105-3,winding=2,PTphase=1,ptratio=66.4,band=3,vreg=123,revNeutral=Yes  ! NUMEQ:47400
new transformer.RT112-1 Phases=1,windings=2,buses=[BMT172572338.1.0 BMT172572341.1.0],conns=[LN LN],kvs=[7.967 7.967],kvas=[750.000000000 750.000000000],xhl=0.700000000,%loadloss=0.200000000,%noloadloss=0.0559
new RegControl.RC112-1 transformer=RT112-1,winding=2,PTphase=1,ptratio=66.4,band=3,vreg=123,revNeutral=Yes  ! NUMEQ:327525
new transformer.RT112-2 Phases=1,windings=2,buses=[BMT172572338.2.0 BMT172572341.2.0],conns=[LN LN],kvs=[7.967 7.967],kvas=[750.000000000 750.000000000],xhl=0.700000000,%loadloss=0.200000000,%noloadloss=0.0559
new RegControl.RC112-2 transformer=RT112-2,winding=2,PTphase=1,ptratio=66.4,band=3,vreg=123,revNeutral=Yes  ! NUMEQ:327525
new transformer.RT112-3 Phases=1,windings=2,buses=[BMT172572338.3.0 BMT172572341.3.0],conns=[LN LN],kvs=[7.967 7.967],kvas=[750.000000000 750.000000000],xhl=0.700000000,%loadloss=0.200000000,%noloadloss=0.0559
new RegControl.RC112-3 transformer=RT112-3,winding=2,PTphase=1,ptratio=66.4,band=3,vreg=123,revNeutral=Yes  ! NUMEQ:327525
new transformer.RT1295-1 Phases=1,windings=2,buses=[BMT151410637.1.0 BMT125555343.1.0],conns=[LN LN],kvs=[7.967 7.967],kvas=[750.000000000 750.000000000],xhl=0.700000000,%loadloss=0.200000000,%noloadloss=0.0559
new RegControl.RC1295-1 transformer=RT1295-1,winding=2,PTphase=1,ptratio=66.4,band=3,vreg=123,revNeutral=Yes  ! NUMEQ:198996
new transformer.RT1295-2 Phases=1,windings=2,buses=[BMT151410637.2.0 BMT125555343.2.0],conns=[LN LN],kvs=[7.967 7.967],kvas=[750.000000000 750.000000000],xhl=0.700000000,%loadloss=0.200000000,%noloadloss=0.0559
new RegControl.RC1295-2 transformer=RT1295-2,winding=2,PTphase=1,ptratio=66.4,band=3,vreg=123,revNeutral=Yes  ! NUMEQ:198996
new transformer.RT1295-3 Phases=1,windings=2,buses=[BMT151410637.3.0 BMT125555343.3.0],conns=[LN LN],kvs=[7.967 7.967],kvas=[750.000000000 750.000000000],xhl=0.700000000,%loadloss=0.200000000,%noloadloss=0.0559
new RegControl.RC1295-3 transformer=RT1295-3,winding=2,PTphase=1,ptratio=66.4,band=3,vreg=123,revNeutral=Yes  ! NUMEQ:198996
new transformer.RT147-1 Phases=1,windings=2,buses=[BMT125569336.1.0 BMT125569476.1.0],conns=[LN LN],kvs=[7.967 7.967],kvas=[1000.000000000 1000.000000000],xhl=0.700000000,%loadloss=0.200000000,%noloadloss=0.0419
new RegControl.RC147-1 transformer=RT147-1,winding=2,PTphase=1,ptratio=66.4,band=3,vreg=123,revNeutral=Yes  ! NUMEQ:47541
new transformer.RT147-2 Phases=1,windings=2,buses=[BMT125569336.2.0 BMT125569476.2.0],conns=[LN LN],kvs=[7.967 7.967],kvas=[1000.000000000 1000.000000000],xhl=0.700000000,%loadloss=0.200000000,%noloadloss=0.0419
new RegControl.RC147-2 transformer=RT147-2,winding=2,PTphase=1,ptratio=66.4,band=3,vreg=123,revNeutral=Yes  ! NUMEQ:47541
new transformer.RT147-3 Phases=1,windings=2,buses=[BMT125569336.3.0 BMT125569476.3.0],conns=[LN LN],kvs=[7.967 7.967],kvas=[1000.000000000 1000.000000000],xhl=0.700000000,%loadloss=0.200000000,%noloadloss=0.0419
new RegControl.RC147-3 transformer=RT147-3,winding=2,PTphase=1,ptratio=66.4,band=3,vreg=123,revNeutral=Yes  ! NUMEQ:47541
new transformer.RT154-1 Phases=1,windings=2,buses=[BMT125569903.1.0 BMT170139360.1.0],conns=[LN LN],kvs=[7.967 7.967],kvas=[1000.000000000 1000.000000000],xhl=0.700000000,%loadloss=0.200000000,%noloadloss=0.0419
new RegControl.RC154-1 transformer=RT154-1,winding=2,PTphase=1,ptratio=66.4,band=3,vreg=123,revNeutral=Yes  ! NUMEQ:47542
new transformer.RT154-2 Phases=1,windings=2,buses=[BMT125569903.2.0 BMT170139360.2.0],conns=[LN LN],kvs=[7.967 7.967],kvas=[1000.000000000 1000.000000000],xhl=0.700000000,%loadloss=0.200000000,%noloadloss=0.0419
new RegControl.RC154-2 transformer=RT154-2,winding=2,PTphase=1,ptratio=66.4,band=3,vreg=123,revNeutral=Yes  ! NUMEQ:47542
new transformer.RT154-3 Phases=1,windings=2,buses=[BMT125569903.3.0 BMT170139360.3.0],conns=[LN LN],kvs=[7.967 7.967],kvas=[1000.000000000 1000.000000000],xhl=0.700000000,%loadloss=0.200000000,%noloadloss=0.0419
...